<routes>
  <vType id="standard_car" accel="1.0" decel="4.5" length="5.0" minGap="2.5" maxSpeed="25" sigma="0.5"/>
  <vehicle id="veh_11_0" type="standard_car" depart="100" departLane="random" departSpeed="10">
    <route edges="-408162776#4 -408162778#8"/>
  </vehicle>
  <vehicle id="veh_11_1" type="standard_car" depart="113" departLane="random" departSpeed="10">
    <route edges="-35950914#8 -35950914#3"/>
  </vehicle>
  <vehicle id="veh_11_2" type="standard_car" depart="114" departLane="random" departSpeed="10">
    <route edges="35950914#0 35950914#4"/>
  </vehicle>
  <vehicle id="veh_11_3" type="standard_car" depart="116" departLane="random" departSpeed="10">
    <route edges="35950914#0 -408162778#8"/>
  </vehicle>
  <vehicle id="veh_11_4" type="standard_car" depart="124" departLane="random" departSpeed="10">
    <route edges="-408162776#4 -35950914#3"/>
  </vehicle>
  <vehicle id="veh_11_5" type="standard_car" depart="148" departLane="random" departSpeed="10">
    <route edges="-408162776#4 -408162778#8"/>
  </vehicle>
  <vehicle id="veh_11_6" type="standard_car" depart="178" departLane="random" departSpeed="10">
    <route edges="-35950914#8 -35950914#3"/>
  </vehicle>
  <vehicle id="veh_11_7" type="standard_car" depart="180" departLane="random" departSpeed="10">
    <route edges="-35950914#8 -35950914#3"/>
  </vehicle>
  <vehicle id="veh_11_8" type="standard_car" depart="204" departLane="random" departSpeed="10">
    <route edges="408162778#1 408162776#0"/>
  </vehicle>
  <vehicle id="veh_11_9" type="standard_car" depart="227" departLane="random" departSpeed="10">
    <route edges="35950914#0 35950914#4"/>
  </vehicle>
  <vehicle id="veh_11_10" type="standard_car" depart="231" departLane="random" departSpeed="10">
    <route edges="408162778#1 408162776#0"/>
  </vehicle>
  <vehicle id="veh_11_11" type="standard_car" depart="245" departLane="random" departSpeed="10">
    <route edges="35950914#0 35950914#4"/>
  </vehicle>
  <vehicle id="veh_11_12" type="standard_car" depart="252" departLane="random" departSpeed="10">
    <route edges="35950914#0 35950914#4"/>
  </vehicle>
  <vehicle id="veh_11_13" type="standard_car" depart="252" departLane="random" departSpeed="10">
    <route edges="35950914#0 35950914#4"/>
  </vehicle>
  <vehicle id="veh_11_14" type="standard_car" depart="259" departLane="random" departSpeed="10">
    <route edges="-408162776#4 -408162778#8"/>
  </vehicle>
  <vehicle id="veh_11_15" type="standard_car" depart="261" departLane="random" departSpeed="10">
    <route edges="35950914#0 35950914#4"/>
  </vehicle>
  <vehicle id="veh_11_16" type="standard_car" depart="271" departLane="random" departSpeed="10">
    <route edges="35950914#0 408162776#0"/>
  </vehicle>
  <vehicle id="veh_11_17" type="standard_car" depart="280" departLane="random" departSpeed="10">
    <route edges="35950914#0 35950914#4"/>
  </vehicle>
  <vehicle id="veh_11_18" type="standard_car" depart="280" departLane="random" departSpeed="10">
    <route edges="-35950914#8 -35950914#3"/>
  </vehicle>
  <vehicle id="veh_11_19" type="standard_car" depart="285" departLane="random" departSpeed="10">
    <route edges="-408162776#4 -408162778#8"/>
  </vehicle>
  <vehicle id="veh_11_20" type="standard_car" depart="286" departLane="random" departSpeed="10">
    <route edges="-408162776#4 -408162778#8"/>
  </vehicle>
  <vehicle id="veh_11_21" type="standard_car" depart="302" departLane="random" departSpeed="10">
    <route edges="408162778#1 408162776#0"/>
  </vehicle>
  <vehicle id="veh_11_22" type="standard_car" depart="303" departLane="random" departSpeed="10">
    <route edges="408162778#1 408162776#0"/>
  </vehicle>
  <vehicle id="veh_11_23" type="standard_car" depart="307" departLane="random" departSpeed="10">
    <route edges="35950914#0 35950914#4"/>
  </vehicle>
  <vehicle id="veh_11_24" type="standard_car" depart="309" departLane="random" departSpeed="10">
    <route edges="408162778#1 408162776#0"/>
  </vehicle>
  <vehicle id="veh_11_25" type="standard_car" depart="312" departLane="random" departSpeed="10">
    <route edges="408162778#1 408162776#0"/>
  </vehicle>
  <vehicle id="veh_11_26" type="standard_car" depart="330" departLane="random" departSpeed="10">
    <route edges="35950914#0 35950914#4"/>
  </vehicle>
  <vehicle id="veh_11_27" type="standard_car" depart="332" departLane="random" departSpeed="10">
    <route edges="-408162776#4 -408162778#8"/>
  </vehicle>
  <vehicle id="veh_11_28" type="standard_car" depart="341" departLane="random" departSpeed="10">
    <route edges="-35950914#8 -35950914#3"/>
  </vehicle>
  <vehicle id="veh_11_29" type="standard_car" depart="347" departLane="random" departSpeed="10">
    <route edges="35950914#0 35950914#4"/>
  </vehicle>
  <vehicle id="veh_11_30" type="standard_car" depart="349" departLane="random" departSpeed="10">
    <route edges="35950914#0 35950914#4"/>
  </vehicle>
  <vehicle id="veh_11_31" type="standard_car" depart="349" departLane="random" departSpeed="10">
    <route edges="-408162776#4 -408162778#8"/>
  </vehicle>
  <vehicle id="veh_11_32" type="standard_car" depart="356" departLane="random" departSpeed="10">
    <route edges="408162778#1 408162776#0"/>
  </vehicle>
  <vehicle id="veh_11_33" type="standard_car" depart="370" departLane="random" departSpeed="10">
    <route edges="35950914#0 35950914#4"/>
  </vehicle>
  <vehicle id="veh_11_34" type="standard_car" depart="377" departLane="random" departSpeed="10">
    <route edges="35950914#0 35950914#4"/>
  </vehicle>
  <vehicle id="veh_11_35" type="standard_car" depart="378" departLane="random" departSpeed="10">
    <route edges="-408162776#4 35950914#4"/>
  </vehicle>
  <vehicle id="veh_11_36" type="standard_car" depart="379" departLane="random" departSpeed="10">
    <route edges="35950914#0 35950914#4"/>
  </vehicle>
  <vehicle id="veh_11_37" type="standard_car" depart="390" departLane="random" departSpeed="10">
    <route edges="35950914#0 408162776#0"/>
  </vehicle>
  <vehicle id="veh_11_38" type="standard_car" depart="392" departLane="random" departSpeed="10">
    <route edges="-408162776#4 -408162778#8"/>
  </vehicle>
  <vehicle id="veh_11_39" type="standard_car" depart="407" departLane="random" departSpeed="10">
    <route edges="35950914#0 -408162778#8"/>
  </vehicle>
  <vehicle id="veh_11_40" type="standard_car" depart="413" departLane="random" departSpeed="10">
    <route edges="35950914#0 408162776#0"/>
  </vehicle>
  <vehicle id="veh_11_41" type="standard_car" depart="420" departLane="random" departSpeed="10">
    <route edges="35950914#0 -408162778#8"/>
  </vehicle>
  <vehicle id="veh_11_42" type="standard_car" depart="420" departLane="random" departSpeed="10">
    <route edges="-408162776#4 -408162778#8"/>
  </vehicle>
  <vehicle id="veh_11_43" type="standard_car" depart="421" departLane="random" departSpeed="10">
    <route edges="-408162776#4 -408162778#8"/>
  </vehicle>
  <vehicle id="veh_11_44" type="standard_car" depart="421" departLane="random" departSpeed="10">
    <route edges="408162778#1 -35950914#3"/>
  </vehicle>
  <vehicle id="veh_11_45" type="standard_car" depart="422" departLane="random" departSpeed="10">
    <route edges="408162778#1 408162776#0"/>
  </vehicle>
  <vehicle id="veh_11_46" type="standard_car" depart="425" departLane="random" departSpeed="10">
    <route edges="-408162776#4 -408162778#8"/>
  </vehicle>
  <vehicle id="veh_11_47" type="standard_car" depart="425" departLane="random" departSpeed="10">
    <route edges="35950914#0 408162776#0"/>
  </vehicle>
  <vehicle id="veh_11_48" type="standard_car" depart="428" departLane="random" departSpeed="10">
    <route edges="-35950914#8 -408162778#8"/>
  </vehicle>
  <vehicle id="veh_11_49" type="standard_car" depart="430" departLane="random" departSpeed="10">
    <route edges="-35950914#8 -35950914#3"/>
  </vehicle>
  <vehicle id="veh_11_50" type="standard_car" depart="430" departLane="random" departSpeed="10">
    <route edges="-35950914#8 -35950914#3"/>
  </vehicle>
  <vehicle id="veh_11_51" type="standard_car" depart="431" departLane="random" departSpeed="10">
    <route edges="-35950914#8 -35950914#3"/>
  </vehicle>
  <vehicle id="veh_11_52" type="standard_car" depart="432" departLane="random" departSpeed="10">
    <route edges="-35950914#8 -35950914#3"/>
  </vehicle>
  <vehicle id="veh_11_53" type="standard_car" depart="433" departLane="random" departSpeed="10">
    <route edges="35950914#0 35950914#4"/>
  </vehicle>
  <vehicle id="veh_11_54" type="standard_car" depart="447" departLane="random" departSpeed="10">
    <route edges="408162778#1 408162776#0"/>
  </vehicle>
  <vehicle id="veh_11_55" type="standard_car" depart="454" departLane="random" departSpeed="10">
    <route edges="35950914#0 -408162778#8"/>
  </vehicle>
  <vehicle id="veh_11_56" type="standard_car" depart="458" departLane="random" departSpeed="10">
    <route edges="408162778#1 408162776#0"/>
  </vehicle>
  <vehicle id="veh_11_57" type="standard_car" depart="459" departLane="random" departSpeed="10">
    <route edges="-408162776#4 35950914#4"/>
  </vehicle>
  <vehicle id="veh_11_58" type="standard_car" depart="462" departLane="random" departSpeed="10">
    <route edges="408162778#1 408162776#0"/>
  </vehicle>
  <vehicle id="veh_11_59" type="standard_car" depart="468" departLane="random" departSpeed="10">
    <route edges="-35950914#8 -35950914#3"/>
  </vehicle>
  <vehicle id="veh_11_60" type="standard_car" depart="469" departLane="random" departSpeed="10">
    <route edges="408162778#1 408162776#0"/>
  </vehicle>
  <vehicle id="veh_11_61" type="standard_car" depart="478" departLane="random" departSpeed="10">
    <route edges="408162778#1 408162776#0"/>
  </vehicle>
  <vehicle id="veh_11_62" type="standard_car" depart="481" departLane="random" departSpeed="10">
    <route edges="-408162776#4 -408162778#8"/>
  </vehicle>
  <vehicle id="veh_11_63" type="standard_car" depart="485" departLane="random" departSpeed="10">
    <route edges="408162778#1 408162776#0"/>
  </vehicle>
  <vehicle id="veh_11_64" type="standard_car" depart="486" departLane="random" departSpeed="10">
    <route edges="-408162776#4 -408162778#8"/>
  </vehicle>
  <vehicle id="veh_11_65" type="standard_car" depart="493" departLane="random" departSpeed="10">
    <route edges="-408162776#4 -408162778#8"/>
  </vehicle>
  <vehicle id="veh_11_66" type="standard_car" depart="494" departLane="random" departSpeed="10">
    <route edges="408162778#1 408162776#0"/>
  </vehicle>
  <vehicle id="veh_11_67" type="standard_car" depart="503" departLane="random" departSpeed="10">
    <route edges="35950914#0 35950914#4"/>
  </vehicle>
  <vehicle id="veh_11_68" type="standard_car" depart="505" departLane="random" departSpeed="10">
    <route edges="35950914#0 35950914#4"/>
  </vehicle>
  <vehicle id="veh_11_69" type="standard_car" depart="506" departLane="random" departSpeed="10">
    <route edges="35950914#0 35950914#4"/>
  </vehicle>
  <vehicle id="veh_11_70" type="standard_car" depart="509" departLane="random" departSpeed="10">
    <route edges="35950914#0 35950914#4"/>
  </vehicle>
  <vehicle id="veh_11_71" type="standard_car" depart="514" departLane="random" departSpeed="10">
    <route edges="35950914#0 35950914#4"/>
  </vehicle>
  <vehicle id="veh_11_72" type="standard_car" depart="515" departLane="random" departSpeed="10">
    <route edges="408162778#1 -35950914#3"/>
  </vehicle>
  <vehicle id="veh_11_73" type="standard_car" depart="523" departLane="random" departSpeed="10">
    <route edges="-35950914#8 -35950914#3"/>
  </vehicle>
  <vehicle id="veh_11_74" type="standard_car" depart="530" departLane="random" departSpeed="10">
    <route edges="-408162776#4 -408162778#8"/>
  </vehicle>
  <vehicle id="veh_11_75" type="standard_car" depart="533" departLane="random" departSpeed="10">
    <route edges="408162778#1 35950914#4"/>
  </vehicle>
  <vehicle id="veh_11_76" type="standard_car" depart="534" departLane="random" departSpeed="10">
    <route edges="408162778#1 408162776#0"/>
  </vehicle>
  <vehicle id="veh_11_77" type="standard_car" depart="539" departLane="random" departSpeed="10">
    <route edges="408162778#1 408162776#0"/>
  </vehicle>
  <vehicle id="veh_11_78" type="standard_car" depart="550" departLane="random" departSpeed="10">
    <route edges="-408162776#4 -408162778#8"/>
  </vehicle>
  <vehicle id="veh_11_79" type="standard_car" depart="552" departLane="random" departSpeed="10">
    <route edges="35950914#0 408162776#0"/>
  </vehicle>
  <vehicle id="veh_11_80" type="standard_car" depart="556" departLane="random" departSpeed="10">
    <route edges="35950914#0 35950914#4"/>
  </vehicle>
  <vehicle id="veh_11_81" type="standard_car" depart="557" departLane="random" departSpeed="10">
    <route edges="-408162776#4 -408162778#8"/>
  </vehicle>
  <vehicle id="veh_11_82" type="standard_car" depart="560" departLane="random" departSpeed="10">
    <route edges="35950914#0 35950914#4"/>
  </vehicle>
  <vehicle id="veh_11_83" type="standard_car" depart="562" departLane="random" departSpeed="10">
    <route edges="-35950914#8 -35950914#3"/>
  </vehicle>
  <vehicle id="veh_11_84" type="standard_car" depart="573" departLane="random" departSpeed="10">
    <route edges="-35950914#8 408162776#0"/>
  </vehicle>
  <vehicle id="veh_11_85" type="standard_car" depart="580" departLane="random" departSpeed="10">
    <route edges="408162778#1 408162776#0"/>
  </vehicle>
  <vehicle id="veh_11_86" type="standard_car" depart="582" departLane="random" departSpeed="10">
    <route edges="408162778#1 408162776#0"/>
  </vehicle>
  <vehicle id="veh_11_87" type="standard_car" depart="588" departLane="random" departSpeed="10">
    <route edges="-408162776#4 35950914#4"/>
  </vehicle>
  <vehicle id="veh_11_88" type="standard_car" depart="594" departLane="random" departSpeed="10">
    <route edges="35950914#0 35950914#4"/>
  </vehicle>
  <vehicle id="veh_11_89" type="standard_car" depart="600" departLane="random" departSpeed="10">
    <route edges="35950914#0 35950914#4"/>
  </vehicle>
  <vehicle id="veh_11_90" type="standard_car" depart="601" departLane="random" departSpeed="10">
    <route edges="35950914#0 408162776#0"/>
  </vehicle>
  <vehicle id="veh_11_91" type="standard_car" depart="606" departLane="random" departSpeed="10">
    <route edges="35950914#0 35950914#4"/>
  </vehicle>
  <vehicle id="veh_11_92" type="standard_car" depart="607" departLane="random" departSpeed="10">
    <route edges="408162778#1 408162776#0"/>
  </vehicle>
  <vehicle id="veh_11_93" type="standard_car" depart="608" departLane="random" departSpeed="10">
    <route edges="408162778#1 408162776#0"/>
  </vehicle>
  <vehicle id="veh_11_94" type="standard_car" depart="608" departLane="random" departSpeed="10">
    <route edges="408162778#1 408162776#0"/>
  </vehicle>
  <vehicle id="veh_11_95" type="standard_car" depart="610" departLane="random" departSpeed="10">
    <route edges="-35950914#8 -35950914#3"/>
  </vehicle>
  <vehicle id="veh_11_96" type="standard_car" depart="611" departLane="random" departSpeed="10">
    <route edges="-35950914#8 -35950914#3"/>
  </vehicle>
  <vehicle id="veh_11_97" type="standard_car" depart="612" departLane="random" departSpeed="10">
    <route edges="-408162776#4 -35950914#3"/>
  </vehicle>
  <vehicle id="veh_11_98" type="standard_car" depart="619" departLane="random" departSpeed="10">
    <route edges="35950914#0 35950914#4"/>
  </vehicle>
  <vehicle id="veh_11_99" type="standard_car" depart="620" departLane="random" departSpeed="10">
    <route edges="408162778#1 408162776#0"/>
  </vehicle>
  <vehicle id="veh_11_100" type="standard_car" depart="622" departLane="random" departSpeed="10">
    <route edges="-35950914#8 -35950914#3"/>
  </vehicle>
  <vehicle id="veh_11_101" type="standard_car" depart="623" departLane="random" departSpeed="10">
    <route edges="408162778#1 408162776#0"/>
  </vehicle>
  <vehicle id="veh_11_102" type="standard_car" depart="625" departLane="random" departSpeed="10">
    <route edges="35950914#0 35950914#4"/>
  </vehicle>
  <vehicle id="veh_11_103" type="standard_car" depart="629" departLane="random" departSpeed="10">
    <route edges="35950914#0 35950914#4"/>
  </vehicle>
  <vehicle id="veh_11_104" type="standard_car" depart="630" departLane="random" departSpeed="10">
    <route edges="-35950914#8 -35950914#3"/>
  </vehicle>
  <vehicle id="veh_11_105" type="standard_car" depart="630" departLane="random" departSpeed="10">
    <route edges="35950914#0 35950914#4"/>
  </vehicle>
  <vehicle id="veh_11_106" type="standard_car" depart="634" departLane="random" departSpeed="10">
    <route edges="35950914#0 35950914#4"/>
  </vehicle>
  <vehicle id="veh_11_107" type="standard_car" depart="636" departLane="random" departSpeed="10">
    <route edges="408162778#1 35950914#4"/>
  </vehicle>
  <vehicle id="veh_11_108" type="standard_car" depart="641" departLane="random" departSpeed="10">
    <route edges="-408162776#4 -35950914#3"/>
  </vehicle>
  <vehicle id="veh_11_109" type="standard_car" depart="643" departLane="random" departSpeed="10">
    <route edges="-35950914#8 -35950914#3"/>
  </vehicle>
  <vehicle id="veh_11_110" type="standard_car" depart="643" departLane="random" departSpeed="10">
    <route edges="-408162776#4 -408162778#8"/>
  </vehicle>
  <vehicle id="veh_11_111" type="standard_car" depart="646" departLane="random" departSpeed="10">
    <route edges="35950914#0 -408162778#8"/>
  </vehicle>
  <vehicle id="veh_11_112" type="standard_car" depart="650" departLane="random" departSpeed="10">
    <route edges="-408162776#4 -408162778#8"/>
  </vehicle>
  <vehicle id="veh_11_113" type="standard_car" depart="655" departLane="random" departSpeed="10">
    <route edges="35950914#0 35950914#4"/>
  </vehicle>
  <vehicle id="veh_11_114" type="standard_car" depart="656" departLane="random" departSpeed="10">
    <route edges="-408162776#4 -408162778#8"/>
  </vehicle>
  <vehicle id="veh_11_115" type="standard_car" depart="657" departLane="random" departSpeed="10">
    <route edges="35950914#0 35950914#4"/>
  </vehicle>
  <vehicle id="veh_11_116" type="standard_car" depart="664" departLane="random" departSpeed="10">
    <route edges="408162778#1 408162776#0"/>
  </vehicle>
  <vehicle id="veh_11_117" type="standard_car" depart="667" departLane="random" departSpeed="10">
    <route edges="-408162776#4 -35950914#3"/>
  </vehicle>
  <vehicle id="veh_11_118" type="standard_car" depart="668" departLane="random" departSpeed="10">
    <route edges="-35950914#8 -35950914#3"/>
  </vehicle>
  <vehicle id="veh_11_119" type="standard_car" depart="671" departLane="random" departSpeed="10">
    <route edges="408162778#1 408162776#0"/>
  </vehicle>
  <vehicle id="veh_11_120" type="standard_car" depart="674" departLane="random" departSpeed="10">
    <route edges="408162778#1 408162776#0"/>
  </vehicle>
  <vehicle id="veh_11_121" type="standard_car" depart="675" departLane="random" departSpeed="10">
    <route edges="35950914#0 408162776#0"/>
  </vehicle>
  <vehicle id="veh_11_122" type="standard_car" depart="675" departLane="random" departSpeed="10">
    <route edges="-35950914#8 -35950914#3"/>
  </vehicle>
  <vehicle id="veh_11_123" type="standard_car" depart="675" departLane="random" departSpeed="10">
    <route edges="35950914#0 35950914#4"/>
  </vehicle>
  <vehicle id="veh_11_124" type="standard_car" depart="677" departLane="random" departSpeed="10">
    <route edges="408162778#1 408162776#0"/>
  </vehicle>
  <vehicle id="veh_11_125" type="standard_car" depart="679" departLane="random" departSpeed="10">
    <route edges="-35950914#8 -35950914#3"/>
  </vehicle>
  <vehicle id="veh_11_126" type="standard_car" depart="685" departLane="random" departSpeed="10">
    <route edges="-35950914#8 -408162778#8"/>
  </vehicle>
  <vehicle id="veh_11_127" type="standard_car" depart="686" departLane="random" departSpeed="10">
    <route edges="-408162776#4 -408162778#8"/>
  </vehicle>
  <vehicle id="veh_11_128" type="standard_car" depart="687" departLane="random" departSpeed="10">
    <route edges="-408162776#4 -408162778#8"/>
  </vehicle>
  <vehicle id="veh_11_129" type="standard_car" depart="690" departLane="random" departSpeed="10">
    <route edges="35950914#0 35950914#4"/>
  </vehicle>
  <vehicle id="veh_11_130" type="standard_car" depart="693" departLane="random" departSpeed="10">
    <route edges="408162778#1 408162776#0"/>
  </vehicle>
  <vehicle id="veh_11_131" type="standard_car" depart="696" departLane="random" departSpeed="10">
    <route edges="408162778#1 -35950914#3"/>
  </vehicle>
  <vehicle id="veh_11_132" type="standard_car" depart="697" departLane="random" departSpeed="10">
    <route edges="408162778#1 35950914#4"/>
  </vehicle>
  <vehicle id="veh_11_133" type="standard_car" depart="701" departLane="random" departSpeed="10">
    <route edges="-408162776#4 -35950914#3"/>
  </vehicle>
  <vehicle id="veh_11_134" type="standard_car" depart="704" departLane="random" departSpeed="10">
    <route edges="-408162776#4 -408162778#8"/>
  </vehicle>
  <vehicle id="veh_11_135" type="standard_car" depart="705" departLane="random" departSpeed="10">
    <route edges="35950914#0 35950914#4"/>
  </vehicle>
  <vehicle id="veh_11_136" type="standard_car" depart="708" departLane="random" departSpeed="10">
    <route edges="35950914#0 35950914#4"/>
  </vehicle>
  <vehicle id="veh_11_137" type="standard_car" depart="712" departLane="random" departSpeed="10">
    <route edges="408162778#1 -35950914#3"/>
  </vehicle>
  <vehicle id="veh_11_138" type="standard_car" depart="718" departLane="random" departSpeed="10">
    <route edges="-35950914#8 -35950914#3"/>
  </vehicle>
  <vehicle id="veh_11_139" type="standard_car" depart="720" departLane="random" departSpeed="10">
    <route edges="-408162776#4 -408162778#8"/>
  </vehicle>
  <vehicle id="veh_11_140" type="standard_car" depart="736" departLane="random" departSpeed="10">
    <route edges="408162778#1 35950914#4"/>
  </vehicle>
  <vehicle id="veh_11_141" type="standard_car" depart="744" departLane="random" departSpeed="10">
    <route edges="35950914#0 408162776#0"/>
  </vehicle>
  <vehicle id="veh_11_142" type="standard_car" depart="745" departLane="random" departSpeed="10">
    <route edges="-408162776#4 -408162778#8"/>
  </vehicle>
  <vehicle id="veh_11_143" type="standard_car" depart="746" departLane="random" departSpeed="10">
    <route edges="-408162776#4 -408162778#8"/>
  </vehicle>
  <vehicle id="veh_11_144" type="standard_car" depart="746" departLane="random" departSpeed="10">
    <route edges="-35950914#8 -35950914#3"/>
  </vehicle>
  <vehicle id="veh_11_145" type="standard_car" depart="746" departLane="random" departSpeed="10">
    <route edges="-408162776#4 -35950914#3"/>
  </vehicle>
  <vehicle id="veh_11_146" type="standard_car" depart="748" departLane="random" departSpeed="10">
    <route edges="35950914#0 35950914#4"/>
  </vehicle>
  <vehicle id="veh_11_147" type="standard_car" depart="749" departLane="random" departSpeed="10">
    <route edges="-408162776#4 35950914#4"/>
  </vehicle>
  <vehicle id="veh_11_148" type="standard_car" depart="751" departLane="random" departSpeed="10">
    <route edges="-408162776#4 -408162778#8"/>
  </vehicle>
  <vehicle id="veh_11_149" type="standard_car" depart="752" departLane="random" departSpeed="10">
    <route edges="35950914#0 35950914#4"/>
  </vehicle>
  <vehicle id="veh_11_150" type="standard_car" depart="765" departLane="random" departSpeed="10">
    <route edges="35950914#0 -408162778#8"/>
  </vehicle>
  <vehicle id="veh_11_151" type="standard_car" depart="768" departLane="random" departSpeed="10">
    <route edges="-408162776#4 -408162778#8"/>
  </vehicle>
  <vehicle id="veh_11_152" type="standard_car" depart="773" departLane="random" departSpeed="10">
    <route edges="-35950914#8 -35950914#3"/>
  </vehicle>
  <vehicle id="veh_11_153" type="standard_car" depart="774" departLane="random" departSpeed="10">
    <route edges="408162778#1 408162776#0"/>
  </vehicle>
  <vehicle id="veh_11_154" type="standard_car" depart="775" departLane="random" departSpeed="10">
    <route edges="35950914#0 35950914#4"/>
  </vehicle>
  <vehicle id="veh_11_155" type="standard_car" depart="778" departLane="random" departSpeed="10">
    <route edges="408162778#1 -35950914#3"/>
  </vehicle>
  <vehicle id="veh_11_156" type="standard_car" depart="779" departLane="random" departSpeed="10">
    <route edges="408162778#1 408162776#0"/>
  </vehicle>
  <vehicle id="veh_11_157" type="standard_car" depart="779" departLane="random" departSpeed="10">
    <route edges="35950914#0 35950914#4"/>
  </vehicle>
  <vehicle id="veh_11_158" type="standard_car" depart="780" departLane="random" departSpeed="10">
    <route edges="408162778#1 408162776#0"/>
  </vehicle>
  <vehicle id="veh_11_159" type="standard_car" depart="783" departLane="random" departSpeed="10">
    <route edges="408162778#1 408162776#0"/>
  </vehicle>
  <vehicle id="veh_11_160" type="standard_car" depart="784" departLane="random" departSpeed="10">
    <route edges="-35950914#8 -35950914#3"/>
  </vehicle>
  <vehicle id="veh_11_161" type="standard_car" depart="785" departLane="random" departSpeed="10">
    <route edges="35950914#0 35950914#4"/>
  </vehicle>
  <vehicle id="veh_11_162" type="standard_car" depart="786" departLane="random" departSpeed="10">
    <route edges="35950914#0 35950914#4"/>
  </vehicle>
  <vehicle id="veh_11_163" type="standard_car" depart="789" departLane="random" departSpeed="10">
    <route edges="-408162776#4 -408162778#8"/>
  </vehicle>
  <vehicle id="veh_11_164" type="standard_car" depart="790" departLane="random" departSpeed="10">
    <route edges="-35950914#8 -35950914#3"/>
  </vehicle>
  <vehicle id="veh_11_165" type="standard_car" depart="792" departLane="random" departSpeed="10">
    <route edges="-408162776#4 -35950914#3"/>
  </vehicle>
  <vehicle id="veh_11_166" type="standard_car" depart="792" departLane="random" departSpeed="10">
    <route edges="-408162776#4 -408162778#8"/>
  </vehicle>
  <vehicle id="veh_11_167" type="standard_car" depart="803" departLane="random" departSpeed="10">
    <route edges="-408162776#4 -408162778#8"/>
  </vehicle>
  <vehicle id="veh_11_168" type="standard_car" depart="809" departLane="random" departSpeed="10">
    <route edges="-408162776#4 -408162778#8"/>
  </vehicle>
  <vehicle id="veh_11_169" type="standard_car" depart="810" departLane="random" departSpeed="10">
    <route edges="-35950914#8 -35950914#3"/>
  </vehicle>
  <vehicle id="veh_11_170" type="standard_car" depart="812" departLane="random" departSpeed="10">
    <route edges="-408162776#4 -408162778#8"/>
  </vehicle>
  <vehicle id="veh_11_171" type="standard_car" depart="813" departLane="random" departSpeed="10">
    <route edges="-408162776#4 -408162778#8"/>
  </vehicle>
  <vehicle id="veh_11_172" type="standard_car" depart="821" departLane="random" departSpeed="10">
    <route edges="408162778#1 408162776#0"/>
  </vehicle>
  <vehicle id="veh_11_173" type="standard_car" depart="821" departLane="random" departSpeed="10">
    <route edges="-408162776#4 -35950914#3"/>
  </vehicle>
  <vehicle id="veh_11_174" type="standard_car" depart="821" departLane="random" departSpeed="10">
    <route edges="35950914#0 408162776#0"/>
  </vehicle>
  <vehicle id="veh_11_175" type="standard_car" depart="824" departLane="random" departSpeed="10">
    <route edges="408162778#1 408162776#0"/>
  </vehicle>
  <vehicle id="veh_11_176" type="standard_car" depart="825" departLane="random" departSpeed="10">
    <route edges="-35950914#8 408162776#0"/>
  </vehicle>
  <vehicle id="veh_11_177" type="standard_car" depart="826" departLane="random" departSpeed="10">
    <route edges="-35950914#8 -35950914#3"/>
  </vehicle>
  <vehicle id="veh_11_178" type="standard_car" depart="828" departLane="random" departSpeed="10">
    <route edges="-408162776#4 -35950914#3"/>
  </vehicle>
  <vehicle id="veh_11_179" type="standard_car" depart="832" departLane="random" departSpeed="10">
    <route edges="408162778#1 408162776#0"/>
  </vehicle>
  <vehicle id="veh_11_180" type="standard_car" depart="834" departLane="random" departSpeed="10">
    <route edges="-35950914#8 -35950914#3"/>
  </vehicle>
  <vehicle id="veh_11_181" type="standard_car" depart="841" departLane="random" departSpeed="10">
    <route edges="408162778#1 35950914#4"/>
  </vehicle>
  <vehicle id="veh_11_182" type="standard_car" depart="850" departLane="random" departSpeed="10">
    <route edges="-35950914#8 -408162778#8"/>
  </vehicle>
  <vehicle id="veh_11_183" type="standard_car" depart="850" departLane="random" departSpeed="10">
    <route edges="35950914#0 35950914#4"/>
  </vehicle>
  <vehicle id="veh_11_184" type="standard_car" depart="854" departLane="random" departSpeed="10">
    <route edges="-408162776#4 -408162778#8"/>
  </vehicle>
  <vehicle id="veh_11_185" type="standard_car" depart="855" departLane="random" departSpeed="10">
    <route edges="35950914#0 408162776#0"/>
  </vehicle>
  <vehicle id="veh_11_186" type="standard_car" depart="855" departLane="random" departSpeed="10">
    <route edges="-35950914#8 -35950914#3"/>
  </vehicle>
  <vehicle id="veh_11_187" type="standard_car" depart="858" departLane="random" departSpeed="10">
    <route edges="-35950914#8 -35950914#3"/>
  </vehicle>
  <vehicle id="veh_11_188" type="standard_car" depart="859" departLane="random" departSpeed="10">
    <route edges="-408162776#4 -408162778#8"/>
  </vehicle>
  <vehicle id="veh_11_189" type="standard_car" depart="860" departLane="random" departSpeed="10">
    <route edges="-408162776#4 -408162778#8"/>
  </vehicle>
  <vehicle id="veh_11_190" type="standard_car" depart="860" departLane="random" departSpeed="10">
    <route edges="408162778#1 35950914#4"/>
  </vehicle>
  <vehicle id="veh_11_191" type="standard_car" depart="863" departLane="random" departSpeed="10">
    <route edges="-35950914#8 -35950914#3"/>
  </vehicle>