<routes>
  <vType id="standard_car" accel="1.0" decel="4.5" length="5.0" minGap="2.5" maxSpeed="25" sigma="0.5"/>
  <vehicle id="veh_0_0" type="standard_car" depart="42" departLane="random" departSpeed="10">
    <route edges="-408162776#4 -35950914#3"/>
  </vehicle>
  <vehicle id="veh_0_1" type="standard_car" depart="67" departLane="random" departSpeed="10">
    <route edges="35950914#0 -408162778#8"/>
  </vehicle>
  <vehicle id="veh_0_2" type="standard_car" depart="94" departLane="random" departSpeed="10">
    <route edges="-35950914#8 -35950914#3"/>
  </vehicle>
  <vehicle id="veh_0_3" type="standard_car" depart="112" departLane="random" departSpeed="10">
    <route edges="35950914#0 35950914#4"/>
  </vehicle>
  <vehicle id="veh_0_4" type="standard_car" depart="123" departLane="random" departSpeed="10">
    <route edges="35950914#0 35950914#4"/>
  </vehicle>
  <vehicle id="veh_0_5" type="standard_car" depart="129" departLane="random" departSpeed="10">
    <route edges="35950914#0 408162776#0"/>
  </vehicle>
  <vehicle id="veh_0_6" type="standard_car" depart="160" departLane="random" departSpeed="10">
    <route edges="-35950914#8 -35950914#3"/>
  </vehicle>
  <vehicle id="veh_0_7" type="standard_car" depart="193" departLane="random" departSpeed="10">
    <route edges="-35950914#8 -408162778#8"/>
  </vehicle>
  <vehicle id="veh_0_8" type="standard_car" depart="195" departLane="random" departSpeed="10">
    <route edges="-408162776#4 -408162778#8"/>
  </vehicle>
  <vehicle id="veh_0_9" type="standard_car" depart="198" departLane="random" departSpeed="10">
    <route edges="-408162776#4 -408162778#8"/>
  </vehicle>
  <vehicle id="veh_0_10" type="standard_car" depart="199" departLane="random" departSpeed="10">
    <route edges="408162778#1 -35950914#3"/>
  </vehicle>
  <vehicle id="veh_0_11" type="standard_car" depart="208" departLane="random" departSpeed="10">
    <route edges="408162778#1 408162776#0"/>
  </vehicle>
  <vehicle id="veh_0_12" type="standard_car" depart="226" departLane="random" departSpeed="10">
    <route edges="-35950914#8 -35950914#3"/>
  </vehicle>
  <vehicle id="veh_0_13" type="standard_car" depart="231" departLane="random" departSpeed="10">
    <route edges="35950914#0 35950914#4"/>
  </vehicle>
  <vehicle id="veh_0_14" type="standard_car" depart="232" departLane="random" departSpeed="10">
    <route edges="35950914#0 -408162778#8"/>
  </vehicle>
  <vehicle id="veh_0_15" type="standard_car" depart="235" departLane="random" departSpeed="10">
    <route edges="-35950914#8 -35950914#3"/>
  </vehicle>
  <vehicle id="veh_0_16" type="standard_car" depart="246" departLane="random" departSpeed="10">
    <route edges="-408162776#4 -408162778#8"/>
  </vehicle>
  <vehicle id="veh_0_17" type="standard_car" depart="248" departLane="random" departSpeed="10">
    <route edges="-35950914#8 -35950914#3"/>
  </vehicle>
  <vehicle id="veh_0_18" type="standard_car" depart="250" departLane="random" departSpeed="10">
    <route edges="-408162776#4 -408162778#8"/>
  </vehicle>
  <vehicle id="veh_0_19" type="standard_car" depart="251" departLane="random" departSpeed="10">
    <route edges="408162778#1 -35950914#3"/>
  </vehicle>
  <vehicle id="veh_0_20" type="standard_car" depart="257" departLane="random" departSpeed="10">
    <route edges="408162778#1 408162776#0"/>
  </vehicle>
  <vehicle id="veh_0_21" type="standard_car" depart="257" departLane="random" departSpeed="10">
    <route edges="-35950914#8 -35950914#3"/>
  </vehicle>
  <vehicle id="veh_0_22" type="standard_car" depart="260" departLane="random" departSpeed="10">
    <route edges="35950914#0 35950914#4"/>
  </vehicle>
  <vehicle id="veh_0_23" type="standard_car" depart="282" departLane="random" departSpeed="10">
    <route edges="-35950914#8 408162776#0"/>
  </vehicle>
  <vehicle id="veh_0_24" type="standard_car" depart="285" departLane="random" departSpeed="10">
    <route edges="-408162776#4 -408162778#8"/>
  </vehicle>
  <vehicle id="veh_0_25" type="standard_car" depart="290" departLane="random" departSpeed="10">
    <route edges="-408162776#4 -408162778#8"/>
  </vehicle>
  <vehicle id="veh_0_26" type="standard_car" depart="309" departLane="random" departSpeed="10">
    <route edges="-408162776#4 -408162778#8"/>
  </vehicle>
  <vehicle id="veh_0_27" type="standard_car" depart="310" departLane="random" departSpeed="10">
    <route edges="35950914#0 35950914#4"/>
  </vehicle>
  <vehicle id="veh_0_28" type="standard_car" depart="314" departLane="random" departSpeed="10">
    <route edges="408162778#1 408162776#0"/>
  </vehicle>
  <vehicle id="veh_0_29" type="standard_car" depart="315" departLane="random" departSpeed="10">
    <route edges="-35950914#8 -35950914#3"/>
  </vehicle>
  <vehicle id="veh_0_30" type="standard_car" depart="324" departLane="random" departSpeed="10">
    <route edges="-408162776#4 -408162778#8"/>
  </vehicle>
  <vehicle id="veh_0_31" type="standard_car" depart="330" departLane="random" departSpeed="10">
    <route edges="408162778#1 408162776#0"/>
  </vehicle>
  <vehicle id="veh_0_32" type="standard_car" depart="331" departLane="random" departSpeed="10">
    <route edges="35950914#0 35950914#4"/>
  </vehicle>
  <vehicle id="veh_0_33" type="standard_car" depart="342" departLane="random" departSpeed="10">
    <route edges="-35950914#8 408162776#0"/>
  </vehicle>
  <vehicle id="veh_0_34" type="standard_car" depart="345" departLane="random" departSpeed="10">
    <route edges="-35950914#8 -35950914#3"/>
  </vehicle>
  <vehicle id="veh_0_35" type="standard_car" depart="357" departLane="random" departSpeed="10">
    <route edges="408162778#1 408162776#0"/>
  </vehicle>
  <vehicle id="veh_0_36" type="standard_car" depart="360" departLane="random" departSpeed="10">
    <route edges="408162778#1 408162776#0"/>
  </vehicle>
  <vehicle id="veh_0_37" type="standard_car" depart="362" departLane="random" departSpeed="10">
    <route edges="-408162776#4 -408162778#8"/>
  </vehicle>
  <vehicle id="veh_0_38" type="standard_car" depart="364" departLane="random" departSpeed="10">
    <route edges="408162778#1 408162776#0"/>
  </vehicle>
  <vehicle id="veh_0_39" type="standard_car" depart="377" departLane="random" departSpeed="10">
    <route edges="35950914#0 35950914#4"/>
  </vehicle>
  <vehicle id="veh_0_40" type="standard_car" depart="385" departLane="random" departSpeed="10">
    <route edges="-408162776#4 -408162778#8"/>
  </vehicle>
  <vehicle id="veh_0_41" type="standard_car" depart="391" departLane="random" departSpeed="10">
    <route edges="-35950914#8 -408162778#8"/>
  </vehicle>
  <vehicle id="veh_0_42" type="standard_car" depart="394" departLane="random" departSpeed="10">
    <route edges="408162778#1 408162776#0"/>
  </vehicle>
  <vehicle id="veh_0_43" type="standard_car" depart="402" departLane="random" departSpeed="10">
    <route edges="-35950914#8 -35950914#3"/>
  </vehicle>
  <vehicle id="veh_0_44" type="standard_car" depart="405" departLane="random" departSpeed="10">
    <route edges="-35950914#8 -35950914#3"/>
  </vehicle>
  <vehicle id="veh_0_45" type="standard_car" depart="422" departLane="random" departSpeed="10">
    <route edges="35950914#0 35950914#4"/>
  </vehicle>
  <vehicle id="veh_0_46" type="standard_car" depart="425" departLane="random" departSpeed="10">
    <route edges="-408162776#4 -408162778#8"/>
  </vehicle>
  <vehicle id="veh_0_47" type="standard_car" depart="430" departLane="random" departSpeed="10">
    <route edges="35950914#0 35950914#4"/>
  </vehicle>
  <vehicle id="veh_0_48" type="standard_car" depart="435" departLane="random" departSpeed="10">
    <route edges="-35950914#8 -35950914#3"/>
  </vehicle>
  <vehicle id="veh_0_49" type="standard_car" depart="436" departLane="random" departSpeed="10">
    <route edges="-408162776#4 -408162778#8"/>
  </vehicle>
  <vehicle id="veh_0_50" type="standard_car" depart="440" departLane="random" departSpeed="10">
    <route edges="-408162776#4 -408162778#8"/>
  </vehicle>
  <vehicle id="veh_0_51" type="standard_car" depart="441" departLane="random" departSpeed="10">
    <route edges="408162778#1 408162776#0"/>
  </vehicle>
  <vehicle id="veh_0_52" type="standard_car" depart="442" departLane="random" departSpeed="10">
    <route edges="408162778#1 -35950914#3"/>
  </vehicle>
  <vehicle id="veh_0_53" type="standard_car" depart="445" departLane="random" departSpeed="10">
    <route edges="35950914#0 -408162778#8"/>
  </vehicle>
  <vehicle id="veh_0_54" type="standard_car" depart="448" departLane="random" departSpeed="10">
    <route edges="-35950914#8 408162776#0"/>
  </vehicle>
  <vehicle id="veh_0_55" type="standard_car" depart="449" departLane="random" departSpeed="10">
    <route edges="35950914#0 35950914#4"/>
  </vehicle>
  <vehicle id="veh_0_56" type="standard_car" depart="452" departLane="random" departSpeed="10">
    <route edges="35950914#0 35950914#4"/>
  </vehicle>
  <vehicle id="veh_0_57" type="standard_car" depart="458" departLane="random" departSpeed="10">
    <route edges="408162778#1 408162776#0"/>
  </vehicle>
  <vehicle id="veh_0_58" type="standard_car" depart="458" departLane="random" departSpeed="10">
    <route edges="-35950914#8 -35950914#3"/>
  </vehicle>
  <vehicle id="veh_0_59" type="standard_car" depart="460" departLane="random" departSpeed="10">
    <route edges="408162778#1 408162776#0"/>
  </vehicle>
  <vehicle id="veh_0_60" type="standard_car" depart="461" departLane="random" departSpeed="10">
    <route edges="-35950914#8 -408162778#8"/>
  </vehicle>
  <vehicle id="veh_0_61" type="standard_car" depart="463" departLane="random" departSpeed="10">
    <route edges="-35950914#8 -35950914#3"/>
  </vehicle>
  <vehicle id="veh_0_62" type="standard_car" depart="463" departLane="random" departSpeed="10">
    <route edges="-408162776#4 -408162778#8"/>
  </vehicle>
  <vehicle id="veh_0_63" type="standard_car" depart="468" departLane="random" departSpeed="10">
    <route edges="-35950914#8 -35950914#3"/>
  </vehicle>
  <vehicle id="veh_0_64" type="standard_car" depart="469" departLane="random" departSpeed="10">
    <route edges="35950914#0 -408162778#8"/>
  </vehicle>
  <vehicle id="veh_0_65" type="standard_car" depart="471" departLane="random" departSpeed="10">
    <route edges="408162778#1 -35950914#3"/>
  </vehicle>
  <vehicle id="veh_0_66" type="standard_car" depart="475" departLane="random" departSpeed="10">
    <route edges="-35950914#8 -35950914#3"/>
  </vehicle>
  <vehicle id="veh_0_67" type="standard_car" depart="478" departLane="random" departSpeed="10">
    <route edges="35950914#0 35950914#4"/>
  </vehicle>
  <vehicle id="veh_0_68" type="standard_car" depart="481" departLane="random" departSpeed="10">
    <route edges="408162778#1 -35950914#3"/>
  </vehicle>
  <vehicle id="veh_0_69" type="standard_car" depart="482" departLane="random" departSpeed="10">
    <route edges="-408162776#4 -408162778#8"/>
  </vehicle>
  <vehicle id="veh_0_70" type="standard_car" depart="482" departLane="random" departSpeed="10">
    <route edges="35950914#0 35950914#4"/>
  </vehicle>
  <vehicle id="veh_0_71" type="standard_car" depart="485" departLane="random" departSpeed="10">
    <route edges="408162778#1 408162776#0"/>
  </vehicle>
  <vehicle id="veh_0_72" type="standard_car" depart="488" departLane="random" departSpeed="10">
    <route edges="408162778#1 408162776#0"/>
  </vehicle>
  <vehicle id="veh_0_73" type="standard_car" depart="489" departLane="random" departSpeed="10">
    <route edges="35950914#0 35950914#4"/>
  </vehicle>
  <vehicle id="veh_0_74" type="standard_car" depart="504" departLane="random" departSpeed="10">
    <route edges="35950914#0 35950914#4"/>
  </vehicle>
  <vehicle id="veh_0_75" type="standard_car" depart="508" departLane="random" departSpeed="10">
    <route edges="408162778#1 408162776#0"/>
  </vehicle>
  <vehicle id="veh_0_76" type="standard_car" depart="509" departLane="random" departSpeed="10">
    <route edges="-408162776#4 -408162778#8"/>
  </vehicle>
  <vehicle id="veh_0_77" type="standard_car" depart="518" departLane="random" departSpeed="10">
    <route edges="408162778#1 408162776#0"/>
  </vehicle>
  <vehicle id="veh_0_78" type="standard_car" depart="522" departLane="random" departSpeed="10">
    <route edges="408162778#1 35950914#4"/>
  </vehicle>
  <vehicle id="veh_0_79" type="standard_car" depart="523" departLane="random" departSpeed="10">
    <route edges="-35950914#8 -35950914#3"/>
  </vehicle>
  <vehicle id="veh_0_80" type="standard_car" depart="524" departLane="random" departSpeed="10">
    <route edges="408162778#1 35950914#4"/>
  </vehicle>
  <vehicle id="veh_0_81" type="standard_car" depart="531" departLane="random" departSpeed="10">
    <route edges="-408162776#4 -408162778#8"/>
  </vehicle>
  <vehicle id="veh_0_82" type="standard_car" depart="538" departLane="random" departSpeed="10">
    <route edges="-408162776#4 -408162778#8"/>
  </vehicle>
  <vehicle id="veh_0_83" type="standard_car" depart="543" departLane="random" departSpeed="10">
    <route edges="-408162776#4 -408162778#8"/>
  </vehicle>
  <vehicle id="veh_0_84" type="standard_car" depart="551" departLane="random" departSpeed="10">
    <route edges="35950914#0 -408162778#8"/>
  </vehicle>
  <vehicle id="veh_0_85" type="standard_car" depart="552" departLane="random" departSpeed="10">
    <route edges="-35950914#8 -35950914#3"/>
  </vehicle>
  <vehicle id="veh_0_86" type="standard_car" depart="556" departLane="random" departSpeed="10">
    <route edges="35950914#0 35950914#4"/>
  </vehicle>
  <vehicle id="veh_0_87" type="standard_car" depart="565" departLane="random" departSpeed="10">
    <route edges="-35950914#8 -35950914#3"/>
  </vehicle>
  <vehicle id="veh_0_88" type="standard_car" depart="572" departLane="random" departSpeed="10">
    <route edges="408162778#1 408162776#0"/>
  </vehicle>
  <vehicle id="veh_0_89" type="standard_car" depart="573" departLane="random" departSpeed="10">
    <route edges="408162778#1 408162776#0"/>
  </vehicle>
  <vehicle id="veh_0_90" type="standard_car" depart="574" departLane="random" departSpeed="10">
    <route edges="35950914#0 35950914#4"/>
  </vehicle>
  <vehicle id="veh_0_91" type="standard_car" depart="575" departLane="random" departSpeed="10">
    <route edges="-35950914#8 -35950914#3"/>
  </vehicle>
  <vehicle id="veh_0_92" type="standard_car" depart="576" departLane="random" departSpeed="10">
    <route edges="-408162776#4 -408162778#8"/>
  </vehicle>
  <vehicle id="veh_0_93" type="standard_car" depart="576" departLane="random" departSpeed="10">
    <route edges="-408162776#4 -408162778#8"/>
  </vehicle>
  <vehicle id="veh_0_94" type="standard_car" depart="577" departLane="random" departSpeed="10">
    <route edges="35950914#0 35950914#4"/>
  </vehicle>
  <vehicle id="veh_0_95" type="standard_car" depart="578" departLane="random" departSpeed="10">
    <route edges="408162778#1 408162776#0"/>
  </vehicle>
  <vehicle id="veh_0_96" type="standard_car" depart="583" departLane="random" departSpeed="10">
    <route edges="-408162776#4 35950914#4"/>
  </vehicle>
  <vehicle id="veh_0_97" type="standard_car" depart="583" departLane="random" departSpeed="10">
    <route edges="-408162776#4 35950914#4"/>
  </vehicle>
  <vehicle id="veh_0_98" type="standard_car" depart="584" departLane="random" departSpeed="10">
    <route edges="-408162776#4 -408162778#8"/>
  </vehicle>
  <vehicle id="veh_0_99" type="standard_car" depart="585" departLane="random" departSpeed="10">
    <route edges="-408162776#4 35950914#4"/>
  </vehicle>
  <vehicle id="veh_0_100" type="standard_car" depart="585" departLane="random" departSpeed="10">
    <route edges="408162778#1 408162776#0"/>
  </vehicle>
  <vehicle id="veh_0_101" type="standard_car" depart="591" departLane="random" departSpeed="10">
    <route edges="408162778#1 408162776#0"/>
  </vehicle>
  <vehicle id="veh_0_102" type="standard_car" depart="592" departLane="random" departSpeed="10">
    <route edges="408162778#1 408162776#0"/>
  </vehicle>
  <vehicle id="veh_0_103" type="standard_car" depart="594" departLane="random" departSpeed="10">
    <route edges="35950914#0 408162776#0"/>
  </vehicle>
  <vehicle id="veh_0_104" type="standard_car" depart="598" departLane="random" departSpeed="10">
    <route edges="35950914#0 35950914#4"/>
  </vehicle>
  <vehicle id="veh_0_105" type="standard_car" depart="602" departLane="random" departSpeed="10">
    <route edges="408162778#1 408162776#0"/>
  </vehicle>
  <vehicle id="veh_0_106" type="standard_car" depart="606" departLane="random" departSpeed="10">
    <route edges="408162778#1 408162776#0"/>
  </vehicle>
  <vehicle id="veh_0_107" type="standard_car" depart="606" departLane="random" departSpeed="10">
    <route edges="408162778#1 408162776#0"/>
  </vehicle>
  <vehicle id="veh_0_108" type="standard_car" depart="607" departLane="random" departSpeed="10">
    <route edges="35950914#0 35950914#4"/>
  </vehicle>
  <vehicle id="veh_0_109" type="standard_car" depart="614" departLane="random" departSpeed="10">
    <route edges="-408162776#4 -408162778#8"/>
  </vehicle>
  <vehicle id="veh_0_110" type="standard_car" depart="616" departLane="random" departSpeed="10">
    <route edges="-408162776#4 -408162778#8"/>
  </vehicle>
  <vehicle id="veh_0_111" type="standard_car" depart="616" departLane="random" departSpeed="10">
    <route edges="-35950914#8 -35950914#3"/>
  </vehicle>
  <vehicle id="veh_0_112" type="standard_car" depart="619" departLane="random" departSpeed="10">
    <route edges="35950914#0 35950914#4"/>
  </vehicle>
  <vehicle id="veh_0_113" type="standard_car" depart="622" departLane="random" departSpeed="10">
    <route edges="-408162776#4 -408162778#8"/>
  </vehicle>
  <vehicle id="veh_0_114" type="standard_car" depart="631" departLane="random" departSpeed="10">
    <route edges="-408162776#4 -35950914#3"/>
  </vehicle>
  <vehicle id="veh_0_115" type="standard_car" depart="631" departLane="random" departSpeed="10">
    <route edges="408162778#1 35950914#4"/>
  </vehicle>
  <vehicle id="veh_0_116" type="standard_car" depart="631" departLane="random" departSpeed="10">
    <route edges="-408162776#4 -35950914#3"/>
  </vehicle>
  <vehicle id="veh_0_117" type="standard_car" depart="632" departLane="random" departSpeed="10">
    <route edges="-408162776#4 -408162778#8"/>
  </vehicle>
  <vehicle id="veh_0_118" type="standard_car" depart="632" departLane="random" departSpeed="10">
    <route edges="-408162776#4 35950914#4"/>
  </vehicle>
  <vehicle id="veh_0_119" type="standard_car" depart="636" departLane="random" departSpeed="10">
    <route edges="-35950914#8 -35950914#3"/>
  </vehicle>
  <vehicle id="veh_0_120" type="standard_car" depart="636" departLane="random" departSpeed="10">
    <route edges="-35950914#8 -35950914#3"/>
  </vehicle>
  <vehicle id="veh_0_121" type="standard_car" depart="636" departLane="random" departSpeed="10">
    <route edges="408162778#1 408162776#0"/>
  </vehicle>
  <vehicle id="veh_0_122" type="standard_car" depart="636" departLane="random" departSpeed="10">
    <route edges="-35950914#8 408162776#0"/>
  </vehicle>
  <vehicle id="veh_0_123" type="standard_car" depart="636" departLane="random" departSpeed="10">
    <route edges="35950914#0 35950914#4"/>
  </vehicle>
  <vehicle id="veh_0_124" type="standard_car" depart="639" departLane="random" departSpeed="10">
    <route edges="-408162776#4 35950914#4"/>
  </vehicle>
  <vehicle id="veh_0_125" type="standard_car" depart="640" departLane="random" departSpeed="10">
    <route edges="-408162776#4 35950914#4"/>
  </vehicle>
  <vehicle id="veh_0_126" type="standard_car" depart="644" departLane="random" departSpeed="10">
    <route edges="35950914#0 35950914#4"/>
  </vehicle>
  <vehicle id="veh_0_127" type="standard_car" depart="644" departLane="random" departSpeed="10">
    <route edges="408162778#1 408162776#0"/>
  </vehicle>
  <vehicle id="veh_0_128" type="standard_car" depart="654" departLane="random" departSpeed="10">
    <route edges="35950914#0 35950914#4"/>
  </vehicle>
  <vehicle id="veh_0_129" type="standard_car" depart="669" departLane="random" departSpeed="10">
    <route edges="-408162776#4 -408162778#8"/>
  </vehicle>
  <vehicle id="veh_0_130" type="standard_car" depart="669" departLane="random" departSpeed="10">
    <route edges="35950914#0 408162776#0"/>
  </vehicle>
  <vehicle id="veh_0_131" type="standard_car" depart="675" departLane="random" departSpeed="10">
    <route edges="-35950914#8 -35950914#3"/>
  </vehicle>
  <vehicle id="veh_0_132" type="standard_car" depart="675" departLane="random" departSpeed="10">
    <route edges="35950914#0 408162776#0"/>
  </vehicle>
  <vehicle id="veh_0_133" type="standard_car" depart="676" departLane="random" departSpeed="10">
    <route edges="-35950914#8 408162776#0"/>
  </vehicle>
  <vehicle id="veh_0_134" type="standard_car" depart="677" departLane="random" departSpeed="10">
    <route edges="35950914#0 35950914#4"/>
  </vehicle>
  <vehicle id="veh_0_135" type="standard_car" depart="677" departLane="random" departSpeed="10">
    <route edges="-408162776#4 -35950914#3"/>
  </vehicle>
  <vehicle id="veh_0_136" type="standard_car" depart="679" departLane="random" departSpeed="10">
    <route edges="35950914#0 -408162778#8"/>
  </vehicle>
  <vehicle id="veh_0_137" type="standard_car" depart="681" departLane="random" departSpeed="10">
    <route edges="35950914#0 408162776#0"/>
  </vehicle>
  <vehicle id="veh_0_138" type="standard_car" depart="681" departLane="random" departSpeed="10">
    <route edges="-35950914#8 -35950914#3"/>
  </vehicle>
  <vehicle id="veh_0_139" type="standard_car" depart="687" departLane="random" departSpeed="10">
    <route edges="-408162776#4 -408162778#8"/>
  </vehicle>
  <vehicle id="veh_0_140" type="standard_car" depart="691" departLane="random" departSpeed="10">
    <route edges="35950914#0 35950914#4"/>
  </vehicle>
  <vehicle id="veh_0_141" type="standard_car" depart="694" departLane="random" departSpeed="10">
    <route edges="-408162776#4 35950914#4"/>
  </vehicle>
  <vehicle id="veh_0_142" type="standard_car" depart="697" departLane="random" departSpeed="10">
    <route edges="-35950914#8 -35950914#3"/>
  </vehicle>
  <vehicle id="veh_0_143" type="standard_car" depart="700" departLane="random" departSpeed="10">
    <route edges="-408162776#4 -408162778#8"/>
  </vehicle>
  <vehicle id="veh_0_144" type="standard_car" depart="700" departLane="random" departSpeed="10">
    <route edges="408162778#1 408162776#0"/>
  </vehicle>
  <vehicle id="veh_0_145" type="standard_car" depart="703" departLane="random" departSpeed="10">
    <route edges="-35950914#8 -35950914#3"/>
  </vehicle>
  <vehicle id="veh_0_146" type="standard_car" depart="708" departLane="random" departSpeed="10">
    <route edges="-35950914#8 -35950914#3"/>
  </vehicle>
  <vehicle id="veh_0_147" type="standard_car" depart="712" departLane="random" departSpeed="10">
    <route edges="-35950914#8 -35950914#3"/>
  </vehicle>
  <vehicle id="veh_0_148" type="standard_car" depart="718" departLane="random" departSpeed="10">
    <route edges="-35950914#8 -35950914#3"/>
  </vehicle>
  <vehicle id="veh_0_149" type="standard_car" depart="720" departLane="random" departSpeed="10">
    <route edges="35950914#0 35950914#4"/>
  </vehicle>
  <vehicle id="veh_0_150" type="standard_car" depart="720" departLane="random" departSpeed="10">
    <route edges="-35950914#8 -35950914#3"/>
  </vehicle>
  <vehicle id="veh_0_151" type="standard_car" depart="720" departLane="random" departSpeed="10">
    <route edges="-35950914#8 -35950914#3"/>
  </vehicle>
  <vehicle id="veh_0_152" type="standard_car" depart="721" departLane="random" departSpeed="10">
    <route edges="408162778#1 408162776#0"/>
  </vehicle>
  <vehicle id="veh_0_153" type="standard_car" depart="724" departLane="random" departSpeed="10">
    <route edges="35950914#0 35950914#4"/>
  </vehicle>
  <vehicle id="veh_0_154" type="standard_car" depart="728" departLane="random" departSpeed="10">
    <route edges="408162778#1 -35950914#3"/>
  </vehicle>
  <vehicle id="veh_0_155" type="standard_car" depart="732" departLane="random" departSpeed="10">
    <route edges="408162778#1 -35950914#3"/>
  </vehicle>
  <vehicle id="veh_0_156" type="standard_car" depart="734" departLane="random" departSpeed="10">
    <route edges="408162778#1 408162776#0"/>
  </vehicle>
  <vehicle id="veh_0_157" type="standard_car" depart="742" departLane="random" departSpeed="10">
    <route edges="-408162776#4 -408162778#8"/>
  </vehicle>
  <vehicle id="veh_0_158" type="standard_car" depart="749" departLane="random" departSpeed="10">
    <route edges="408162778#1 408162776#0"/>
  </vehicle>
  <vehicle id="veh_0_159" type="standard_car" depart="749" departLane="random" departSpeed="10">
    <route edges="408162778#1 35950914#4"/>
  </vehicle>
  <vehicle id="veh_0_160" type="standard_car" depart="750" departLane="random" departSpeed="10">
    <route edges="-408162776#4 -35950914#3"/>
  </vehicle>
  <vehicle id="veh_0_161" type="standard_car" depart="751" departLane="random" departSpeed="10">
    <route edges="35950914#0 35950914#4"/>
  </vehicle>
  <vehicle id="veh_0_162" type="standard_car" depart="752" departLane="random" departSpeed="10">
    <route edges="-35950914#8 -35950914#3"/>
  </vehicle>
  <vehicle id="veh_0_163" type="standard_car" depart="753" departLane="random" departSpeed="10">
    <route edges="35950914#0 408162776#0"/>
  </vehicle>
  <vehicle id="veh_0_164" type="standard_car" depart="753" departLane="random" departSpeed="10">
    <route edges="35950914#0 408162776#0"/>
  </vehicle>
  <vehicle id="veh_0_165" type="standard_car" depart="755" departLane="random" departSpeed="10">
    <route edges="-35950914#8 -35950914#3"/>
  </vehicle>
  <vehicle id="veh_0_166" type="standard_car" depart="757" departLane="random" departSpeed="10">
    <route edges="408162778#1 408162776#0"/>
  </vehicle>
  <vehicle id="veh_0_167" type="standard_car" depart="758" departLane="random" departSpeed="10">
    <route edges="35950914#0 35950914#4"/>
  </vehicle>
  <vehicle id="veh_0_168" type="standard_car" depart="758" departLane="random" departSpeed="10">
    <route edges="-408162776#4 -408162778#8"/>
  </vehicle>
  <vehicle id="veh_0_169" type="standard_car" depart="759" departLane="random" departSpeed="10">
    <route edges="408162778#1 -35950914#3"/>
  </vehicle>
  <vehicle id="veh_0_170" type="standard_car" depart="764" departLane="random" departSpeed="10">
    <route edges="408162778#1 35950914#4"/>
  </vehicle>
  <vehicle id="veh_0_171" type="standard_car" depart="767" departLane="random" departSpeed="10">
    <route edges="35950914#0 35950914#4"/>
  </vehicle>
  <vehicle id="veh_0_172" type="standard_car" depart="775" departLane="random" departSpeed="10">
    <route edges="-35950914#8 -35950914#3"/>
  </vehicle>
  <vehicle id="veh_0_173" type="standard_car" depart="781" departLane="random" departSpeed="10">
    <route edges="-35950914#8 -35950914#3"/>
  </vehicle>
  <vehicle id="veh_0_174" type="standard_car" depart="782" departLane="random" departSpeed="10">
    <route edges="-408162776#4 -408162778#8"/>
  </vehicle>
  <vehicle id="veh_0_175" type="standard_car" depart="784" departLane="random" departSpeed="10">
    <route edges="35950914#0 35950914#4"/>
  </vehicle>
  <vehicle id="veh_0_176" type="standard_car" depart="789" departLane="random" departSpeed="10">
    <route edges="-408162776#4 -408162778#8"/>
  </vehicle>
  <vehicle id="veh_0_177" type="standard_car" depart="789" departLane="random" departSpeed="10">
    <route edges="-35950914#8 -35950914#3"/>
  </vehicle>
  <vehicle id="veh_0_178" type="standard_car" depart="790" departLane="random" departSpeed="10">
    <route edges="35950914#0 35950914#4"/>
  </vehicle>
  <vehicle id="veh_0_179" type="standard_car" depart="793" departLane="random" departSpeed="10">
    <route edges="-35950914#8 408162776#0"/>
  </vehicle>
  <vehicle id="veh_0_180" type="standard_car" depart="794" departLane="random" departSpeed="10">
    <route edges="-35950914#8 -35950914#3"/>
  </vehicle>
  <vehicle id="veh_0_181" type="standard_car" depart="798" departLane="random" departSpeed="10">
    <route edges="-408162776#4 -408162778#8"/>
  </vehicle>
  <vehicle id="veh_0_182" type="standard_car" depart="801" departLane="random" departSpeed="10">
    <route edges="-408162776#4 -408162778#8"/>
  </vehicle>
  <vehicle id="veh_0_183" type="standard_car" depart="801" departLane="random" departSpeed="10">
    <route edges="35950914#0 408162776#0"/>
  </vehicle>
  <vehicle id="veh_0_184" type="standard_car" depart="805" departLane="random" departSpeed="10">
    <route edges="35950914#0 35950914#4"/>
  </vehicle>
  <vehicle id="veh_0_185" type="standard_car" depart="809" departLane="random" departSpeed="10">
    <route edges="35950914#0 35950914#4"/>
  </vehicle>
  <vehicle id="veh_0_186" type="standard_car" depart="810" departLane="random" departSpeed="10">
    <route edges="35950914#0 35950914#4"/>
  </vehicle>
  <vehicle id="veh_0_187" type="standard_car" depart="810" departLane="random" departSpeed="10">
    <route edges="408162778#1 -35950914#3"/>
  </vehicle>
  <vehicle id="veh_0_188" type="standard_car" depart="815" departLane="random" departSpeed="10">
    <route edges="408162778#1 408162776#0"/>
  </vehicle>
  <vehicle id="veh_0_189" type="standard_car" depart="815" departLane="random" departSpeed="10">
    <route edges="-408162776#4 -408162778#8"/>
  </vehicle>
  <vehicle id="veh_0_190" type="standard_car" depart="816" departLane="random" departSpeed="10">
    <route edges="408162778#1 408162776#0"/>
  </vehicle>
  <vehicle id="veh_0_191" type="standard_car" depart="817" departLane="random" departSpeed="10">
    <route edges="35950914#0 35950914#4"/>
  </vehicle>
  <vehicle id="veh_0_192" type="standard_car" depart="819" departLane="random" departSpeed="10">
    <route edges="408162778#1 408162776#0"/>
  </vehicle>