<routes>
  <vType id="standard_car" accel="1.0" decel="4.5" length="5.0" minGap="2.5" maxSpeed="25" sigma="0.5"/>
  <vehicle id="veh_13_0" type="standard_car" depart="6" departLane="random" departSpeed="10">
    <route edges="-35950914#8 -35950914#3"/>
  </vehicle>
  <vehicle id="veh_13_1" type="standard_car" depart="71" departLane="random" departSpeed="10">
    <route edges="408162778#1 408162776#0"/>
  </vehicle>
  <vehicle id="veh_13_2" type="standard_car" depart="106" departLane="random" departSpeed="10">
    <route edges="35950914#0 35950914#4"/>
  </vehicle>
  <vehicle id="veh_13_3" type="standard_car" depart="129" departLane="random" departSpeed="10">
    <route edges="408162778#1 408162776#0"/>
  </vehicle>
  <vehicle id="veh_13_4" type="standard_car" depart="135" departLane="random" departSpeed="10">
    <route edges="-35950914#8 -35950914#3"/>
  </vehicle>
  <vehicle id="veh_13_5" type="standard_car" depart="141" departLane="random" departSpeed="10">
    <route edges="408162778#1 408162776#0"/>
  </vehicle>
  <vehicle id="veh_13_6" type="standard_car" depart="168" departLane="random" departSpeed="10">
    <route edges="-408162776#4 -408162778#8"/>
  </vehicle>
  <vehicle id="veh_13_7" type="standard_car" depart="169" departLane="random" departSpeed="10">
    <route edges="-408162776#4 -408162778#8"/>
  </vehicle>
  <vehicle id="veh_13_8" type="standard_car" depart="175" departLane="random" departSpeed="10">
    <route edges="-35950914#8 408162776#0"/>
  </vehicle>
  <vehicle id="veh_13_9" type="standard_car" depart="179" departLane="random" departSpeed="10">
    <route edges="35950914#0 35950914#4"/>
  </vehicle>
  <vehicle id="veh_13_10" type="standard_car" depart="188" departLane="random" departSpeed="10">
    <route edges="-408162776#4 -408162778#8"/>
  </vehicle>
  <vehicle id="veh_13_11" type="standard_car" depart="205" departLane="random" departSpeed="10">
    <route edges="-35950914#8 -408162778#8"/>
  </vehicle>
  <vehicle id="veh_13_12" type="standard_car" depart="207" departLane="random" departSpeed="10">
    <route edges="-35950914#8 -35950914#3"/>
  </vehicle>
  <vehicle id="veh_13_13" type="standard_car" depart="209" departLane="random" departSpeed="10">
    <route edges="35950914#0 -408162778#8"/>
  </vehicle>
  <vehicle id="veh_13_14" type="standard_car" depart="213" departLane="random" departSpeed="10">
    <route edges="35950914#0 35950914#4"/>
  </vehicle>
  <vehicle id="veh_13_15" type="standard_car" depart="217" departLane="random" departSpeed="10">
    <route edges="-35950914#8 -35950914#3"/>
  </vehicle>
  <vehicle id="veh_13_16" type="standard_car" depart="220" departLane="random" departSpeed="10">
    <route edges="408162778#1 35950914#4"/>
  </vehicle>
  <vehicle id="veh_13_17" type="standard_car" depart="230" departLane="random" departSpeed="10">
    <route edges="408162778#1 408162776#0"/>
  </vehicle>
  <vehicle id="veh_13_18" type="standard_car" depart="236" departLane="random" departSpeed="10">
    <route edges="35950914#0 35950914#4"/>
  </vehicle>
  <vehicle id="veh_13_19" type="standard_car" depart="238" departLane="random" departSpeed="10">
    <route edges="-408162776#4 -408162778#8"/>
  </vehicle>
  <vehicle id="veh_13_20" type="standard_car" depart="246" departLane="random" departSpeed="10">
    <route edges="408162778#1 408162776#0"/>
  </vehicle>
  <vehicle id="veh_13_21" type="standard_car" depart="255" departLane="random" departSpeed="10">
    <route edges="35950914#0 408162776#0"/>
  </vehicle>
  <vehicle id="veh_13_22" type="standard_car" depart="260" departLane="random" departSpeed="10">
    <route edges="408162778#1 408162776#0"/>
  </vehicle>
  <vehicle id="veh_13_23" type="standard_car" depart="265" departLane="random" departSpeed="10">
    <route edges="-35950914#8 -35950914#3"/>
  </vehicle>
  <vehicle id="veh_13_24" type="standard_car" depart="273" departLane="random" departSpeed="10">
    <route edges="-35950914#8 -35950914#3"/>
  </vehicle>
  <vehicle id="veh_13_25" type="standard_car" depart="276" departLane="random" departSpeed="10">
    <route edges="408162778#1 408162776#0"/>
  </vehicle>
  <vehicle id="veh_13_26" type="standard_car" depart="281" departLane="random" departSpeed="10">
    <route edges="-408162776#4 -408162778#8"/>
  </vehicle>
  <vehicle id="veh_13_27" type="standard_car" depart="284" departLane="random" departSpeed="10">
    <route edges="408162778#1 408162776#0"/>
  </vehicle>
  <vehicle id="veh_13_28" type="standard_car" depart="289" departLane="random" departSpeed="10">
    <route edges="-35950914#8 -35950914#3"/>
  </vehicle>
  <vehicle id="veh_13_29" type="standard_car" depart="309" departLane="random" departSpeed="10">
    <route edges="35950914#0 35950914#4"/>
  </vehicle>
  <vehicle id="veh_13_30" type="standard_car" depart="316" departLane="random" departSpeed="10">
    <route edges="408162778#1 -35950914#3"/>
  </vehicle>
  <vehicle id="veh_13_31" type="standard_car" depart="318" departLane="random" departSpeed="10">
    <route edges="-408162776#4 -408162778#8"/>
  </vehicle>
  <vehicle id="veh_13_32" type="standard_car" depart="324" departLane="random" departSpeed="10">
    <route edges="-408162776#4 -408162778#8"/>
  </vehicle>
  <vehicle id="veh_13_33" type="standard_car" depart="324" departLane="random" departSpeed="10">
    <route edges="408162778#1 -35950914#3"/>
  </vehicle>
  <vehicle id="veh_13_34" type="standard_car" depart="333" departLane="random" departSpeed="10">
    <route edges="35950914#0 35950914#4"/>
  </vehicle>
  <vehicle id="veh_13_35" type="standard_car" depart="334" departLane="random" departSpeed="10">
    <route edges="-35950914#8 -408162778#8"/>
  </vehicle>
  <vehicle id="veh_13_36" type="standard_car" depart="340" departLane="random" departSpeed="10">
    <route edges="-35950914#8 -35950914#3"/>
  </vehicle>
  <vehicle id="veh_13_37" type="standard_car" depart="353" departLane="random" departSpeed="10">
    <route edges="35950914#0 35950914#4"/>
  </vehicle>
  <vehicle id="veh_13_38" type="standard_car" depart="359" departLane="random" departSpeed="10">
    <route edges="35950914#0 -408162778#8"/>
  </vehicle>
  <vehicle id="veh_13_39" type="standard_car" depart="364" departLane="random" departSpeed="10">
    <route edges="408162778#1 408162776#0"/>
  </vehicle>
  <vehicle id="veh_13_40" type="standard_car" depart="368" departLane="random" departSpeed="10">
    <route edges="35950914#0 -408162778#8"/>
  </vehicle>
  <vehicle id="veh_13_41" type="standard_car" depart="372" departLane="random" departSpeed="10">
    <route edges="35950914#0 -408162778#8"/>
  </vehicle>
  <vehicle id="veh_13_42" type="standard_car" depart="378" departLane="random" departSpeed="10">
    <route edges="35950914#0 408162776#0"/>
  </vehicle>
  <vehicle id="veh_13_43" type="standard_car" depart="389" departLane="random" departSpeed="10">
    <route edges="-408162776#4 -408162778#8"/>
  </vehicle>
  <vehicle id="veh_13_44" type="standard_car" depart="399" departLane="random" departSpeed="10">
    <route edges="408162778#1 35950914#4"/>
  </vehicle>
  <vehicle id="veh_13_45" type="standard_car" depart="400" departLane="random" departSpeed="10">
    <route edges="35950914#0 -408162778#8"/>
  </vehicle>
  <vehicle id="veh_13_46" type="standard_car" depart="403" departLane="random" departSpeed="10">
    <route edges="35950914#0 35950914#4"/>
  </vehicle>
  <vehicle id="veh_13_47" type="standard_car" depart="405" departLane="random" departSpeed="10">
    <route edges="-408162776#4 -408162778#8"/>
  </vehicle>
  <vehicle id="veh_13_48" type="standard_car" depart="420" departLane="random" departSpeed="10">
    <route edges="35950914#0 408162776#0"/>
  </vehicle>
  <vehicle id="veh_13_49" type="standard_car" depart="431" departLane="random" departSpeed="10">
    <route edges="35950914#0 35950914#4"/>
  </vehicle>
  <vehicle id="veh_13_50" type="standard_car" depart="435" departLane="random" departSpeed="10">
    <route edges="408162778#1 408162776#0"/>
  </vehicle>
  <vehicle id="veh_13_51" type="standard_car" depart="435" departLane="random" departSpeed="10">
    <route edges="-35950914#8 -35950914#3"/>
  </vehicle>
  <vehicle id="veh_13_52" type="standard_car" depart="440" departLane="random" departSpeed="10">
    <route edges="-408162776#4 -408162778#8"/>
  </vehicle>
  <vehicle id="veh_13_53" type="standard_car" depart="442" departLane="random" departSpeed="10">
    <route edges="-408162776#4 -408162778#8"/>
  </vehicle>
  <vehicle id="veh_13_54" type="standard_car" depart="444" departLane="random" departSpeed="10">
    <route edges="-408162776#4 -408162778#8"/>
  </vehicle>
  <vehicle id="veh_13_55" type="standard_car" depart="447" departLane="random" departSpeed="10">
    <route edges="35950914#0 35950914#4"/>
  </vehicle>
  <vehicle id="veh_13_56" type="standard_car" depart="451" departLane="random" departSpeed="10">
    <route edges="-35950914#8 408162776#0"/>
  </vehicle>
  <vehicle id="veh_13_57" type="standard_car" depart="451" departLane="random" departSpeed="10">
    <route edges="35950914#0 35950914#4"/>
  </vehicle>
  <vehicle id="veh_13_58" type="standard_car" depart="451" departLane="random" departSpeed="10">
    <route edges="-35950914#8 -35950914#3"/>
  </vehicle>
  <vehicle id="veh_13_59" type="standard_car" depart="453" departLane="random" departSpeed="10">
    <route edges="408162778#1 -35950914#3"/>
  </vehicle>
  <vehicle id="veh_13_60" type="standard_car" depart="454" departLane="random" departSpeed="10">
    <route edges="-408162776#4 -408162778#8"/>
  </vehicle>
  <vehicle id="veh_13_61" type="standard_car" depart="456" departLane="random" departSpeed="10">
    <route edges="35950914#0 408162776#0"/>
  </vehicle>
  <vehicle id="veh_13_62" type="standard_car" depart="460" departLane="random" departSpeed="10">
    <route edges="35950914#0 35950914#4"/>
  </vehicle>
  <vehicle id="veh_13_63" type="standard_car" depart="467" departLane="random" departSpeed="10">
    <route edges="-35950914#8 -35950914#3"/>
  </vehicle>
  <vehicle id="veh_13_64" type="standard_car" depart="475" departLane="random" departSpeed="10">
    <route edges="-35950914#8 -35950914#3"/>
  </vehicle>
  <vehicle id="veh_13_65" type="standard_car" depart="476" departLane="random" departSpeed="10">
    <route edges="-35950914#8 -35950914#3"/>
  </vehicle>
  <vehicle id="veh_13_66" type="standard_car" depart="477" departLane="random" departSpeed="10">
    <route edges="408162778#1 408162776#0"/>
  </vehicle>
  <vehicle id="veh_13_67" type="standard_car" depart="479" departLane="random" departSpeed="10">
    <route edges="408162778#1 408162776#0"/>
  </vehicle>
  <vehicle id="veh_13_68" type="standard_car" depart="482" departLane="random" departSpeed="10">
    <route edges="35950914#0 408162776#0"/>
  </vehicle>
  <vehicle id="veh_13_69" type="standard_car" depart="485" departLane="random" departSpeed="10">
    <route edges="-35950914#8 -35950914#3"/>
  </vehicle>
  <vehicle id="veh_13_70" type="standard_car" depart="489" departLane="random" departSpeed="10">
    <route edges="-35950914#8 -35950914#3"/>
  </vehicle>
  <vehicle id="veh_13_71" type="standard_car" depart="490" departLane="random" departSpeed="10">
    <route edges="-408162776#4 -35950914#3"/>
  </vehicle>
  <vehicle id="veh_13_72" type="standard_car" depart="494" departLane="random" departSpeed="10">
    <route edges="35950914#0 408162776#0"/>
  </vehicle>
  <vehicle id="veh_13_73" type="standard_car" depart="495" departLane="random" departSpeed="10">
    <route edges="408162778#1 408162776#0"/>
  </vehicle>
  <vehicle id="veh_13_74" type="standard_car" depart="495" departLane="random" departSpeed="10">
    <route edges="-35950914#8 408162776#0"/>
  </vehicle>
  <vehicle id="veh_13_75" type="standard_car" depart="496" departLane="random" departSpeed="10">
    <route edges="408162778#1 408162776#0"/>
  </vehicle>
  <vehicle id="veh_13_76" type="standard_car" depart="498" departLane="random" departSpeed="10">
    <route edges="35950914#0 35950914#4"/>
  </vehicle>
  <vehicle id="veh_13_77" type="standard_car" depart="503" departLane="random" departSpeed="10">
    <route edges="-35950914#8 -35950914#3"/>
  </vehicle>
  <vehicle id="veh_13_78" type="standard_car" depart="503" departLane="random" departSpeed="10">
    <route edges="35950914#0 408162776#0"/>
  </vehicle>
  <vehicle id="veh_13_79" type="standard_car" depart="505" departLane="random" departSpeed="10">
    <route edges="-35950914#8 -35950914#3"/>
  </vehicle>
  <vehicle id="veh_13_80" type="standard_car" depart="509" departLane="random" departSpeed="10">
    <route edges="408162778#1 35950914#4"/>
  </vehicle>
  <vehicle id="veh_13_81" type="standard_car" depart="512" departLane="random" departSpeed="10">
    <route edges="-35950914#8 -35950914#3"/>
  </vehicle>
  <vehicle id="veh_13_82" type="standard_car" depart="519" departLane="random" departSpeed="10">
    <route edges="35950914#0 -408162778#8"/>
  </vehicle>
  <vehicle id="veh_13_83" type="standard_car" depart="525" departLane="random" departSpeed="10">
    <route edges="408162778#1 408162776#0"/>
  </vehicle>
  <vehicle id="veh_13_84" type="standard_car" depart="526" departLane="random" departSpeed="10">
    <route edges="-35950914#8 -35950914#3"/>
  </vehicle>
  <vehicle id="veh_13_85" type="standard_car" depart="527" departLane="random" departSpeed="10">
    <route edges="408162778#1 408162776#0"/>
  </vehicle>
  <vehicle id="veh_13_86" type="standard_car" depart="529" departLane="random" departSpeed="10">
    <route edges="35950914#0 408162776#0"/>
  </vehicle>
  <vehicle id="veh_13_87" type="standard_car" depart="530" departLane="random" departSpeed="10">
    <route edges="408162778#1 408162776#0"/>
  </vehicle>
  <vehicle id="veh_13_88" type="standard_car" depart="530" departLane="random" departSpeed="10">
    <route edges="408162778#1 408162776#0"/>
  </vehicle>
  <vehicle id="veh_13_89" type="standard_car" depart="537" departLane="random" departSpeed="10">
    <route edges="35950914#0 35950914#4"/>
  </vehicle>
  <vehicle id="veh_13_90" type="standard_car" depart="538" departLane="random" departSpeed="10">
    <route edges="-408162776#4 -35950914#3"/>
  </vehicle>
  <vehicle id="veh_13_91" type="standard_car" depart="545" departLane="random" departSpeed="10">
    <route edges="-35950914#8 -35950914#3"/>
  </vehicle>
  <vehicle id="veh_13_92" type="standard_car" depart="547" departLane="random" departSpeed="10">
    <route edges="35950914#0 35950914#4"/>
  </vehicle>
  <vehicle id="veh_13_93" type="standard_car" depart="548" departLane="random" departSpeed="10">
    <route edges="408162778#1 408162776#0"/>
  </vehicle>
  <vehicle id="veh_13_94" type="standard_car" depart="556" departLane="random" departSpeed="10">
    <route edges="-408162776#4 -408162778#8"/>
  </vehicle>
  <vehicle id="veh_13_95" type="standard_car" depart="557" departLane="random" departSpeed="10">
    <route edges="-408162776#4 -408162778#8"/>
  </vehicle>
  <vehicle id="veh_13_96" type="standard_car" depart="562" departLane="random" departSpeed="10">
    <route edges="-35950914#8 408162776#0"/>
  </vehicle>
  <vehicle id="veh_13_97" type="standard_car" depart="563" departLane="random" departSpeed="10">
    <route edges="-408162776#4 -408162778#8"/>
  </vehicle>
  <vehicle id="veh_13_98" type="standard_car" depart="580" departLane="random" departSpeed="10">
    <route edges="-35950914#8 -35950914#3"/>
  </vehicle>
  <vehicle id="veh_13_99" type="standard_car" depart="580" departLane="random" departSpeed="10">
    <route edges="408162778#1 408162776#0"/>
  </vehicle>
  <vehicle id="veh_13_100" type="standard_car" depart="582" departLane="random" departSpeed="10">
    <route edges="408162778#1 408162776#0"/>
  </vehicle>
  <vehicle id="veh_13_101" type="standard_car" depart="585" departLane="random" departSpeed="10">
    <route edges="35950914#0 35950914#4"/>
  </vehicle>
  <vehicle id="veh_13_102" type="standard_car" depart="589" departLane="random" departSpeed="10">
    <route edges="408162778#1 408162776#0"/>
  </vehicle>
  <vehicle id="veh_13_103" type="standard_car" depart="590" departLane="random" departSpeed="10">
    <route edges="-35950914#8 -35950914#3"/>
  </vehicle>
  <vehicle id="veh_13_104" type="standard_car" depart="591" departLane="random" departSpeed="10">
    <route edges="-408162776#4 -408162778#8"/>
  </vehicle>
  <vehicle id="veh_13_105" type="standard_car" depart="593" departLane="random" departSpeed="10">
    <route edges="-35950914#8 -35950914#3"/>
  </vehicle>
  <vehicle id="veh_13_106" type="standard_car" depart="596" departLane="random" departSpeed="10">
    <route edges="408162778#1 408162776#0"/>
  </vehicle>
  <vehicle id="veh_13_107" type="standard_car" depart="600" departLane="random" departSpeed="10">
    <route edges="35950914#0 -408162778#8"/>
  </vehicle>
  <vehicle id="veh_13_108" type="standard_car" depart="600" departLane="random" departSpeed="10">
    <route edges="-35950914#8 -35950914#3"/>
  </vehicle>
  <vehicle id="veh_13_109" type="standard_car" depart="602" departLane="random" departSpeed="10">
    <route edges="35950914#0 35950914#4"/>
  </vehicle>
  <vehicle id="veh_13_110" type="standard_car" depart="605" departLane="random" departSpeed="10">
    <route edges="408162778#1 408162776#0"/>
  </vehicle>
  <vehicle id="veh_13_111" type="standard_car" depart="610" departLane="random" departSpeed="10">
    <route edges="-408162776#4 -408162778#8"/>
  </vehicle>
  <vehicle id="veh_13_112" type="standard_car" depart="611" departLane="random" departSpeed="10">
    <route edges="-408162776#4 -408162778#8"/>
  </vehicle>
  <vehicle id="veh_13_113" type="standard_car" depart="612" departLane="random" departSpeed="10">
    <route edges="408162778#1 408162776#0"/>
  </vehicle>
  <vehicle id="veh_13_114" type="standard_car" depart="612" departLane="random" departSpeed="10">
    <route edges="-408162776#4 -408162778#8"/>
  </vehicle>
  <vehicle id="veh_13_115" type="standard_car" depart="630" departLane="random" departSpeed="10">
    <route edges="-35950914#8 -408162778#8"/>
  </vehicle>
  <vehicle id="veh_13_116" type="standard_car" depart="637" departLane="random" departSpeed="10">
    <route edges="-408162776#4 -408162778#8"/>
  </vehicle>
  <vehicle id="veh_13_117" type="standard_car" depart="641" departLane="random" departSpeed="10">
    <route edges="35950914#0 408162776#0"/>
  </vehicle>
  <vehicle id="veh_13_118" type="standard_car" depart="641" departLane="random" departSpeed="10">
    <route edges="-35950914#8 -35950914#3"/>
  </vehicle>
  <vehicle id="veh_13_119" type="standard_car" depart="642" departLane="random" departSpeed="10">
    <route edges="35950914#0 35950914#4"/>
  </vehicle>
  <vehicle id="veh_13_120" type="standard_car" depart="647" departLane="random" departSpeed="10">
    <route edges="-408162776#4 -408162778#8"/>
  </vehicle>
  <vehicle id="veh_13_121" type="standard_car" depart="650" departLane="random" departSpeed="10">
    <route edges="-408162776#4 -35950914#3"/>
  </vehicle>
  <vehicle id="veh_13_122" type="standard_car" depart="650" departLane="random" departSpeed="10">
    <route edges="-408162776#4 -408162778#8"/>
  </vehicle>
  <vehicle id="veh_13_123" type="standard_car" depart="651" departLane="random" departSpeed="10">
    <route edges="408162778#1 408162776#0"/>
  </vehicle>
  <vehicle id="veh_13_124" type="standard_car" depart="656" departLane="random" departSpeed="10">
    <route edges="-35950914#8 408162776#0"/>
  </vehicle>
  <vehicle id="veh_13_125" type="standard_car" depart="657" departLane="random" departSpeed="10">
    <route edges="408162778#1 408162776#0"/>
  </vehicle>
  <vehicle id="veh_13_126" type="standard_car" depart="664" departLane="random" departSpeed="10">
    <route edges="-35950914#8 -35950914#3"/>
  </vehicle>
  <vehicle id="veh_13_127" type="standard_car" depart="664" departLane="random" departSpeed="10">
    <route edges="35950914#0 35950914#4"/>
  </vehicle>
  <vehicle id="veh_13_128" type="standard_car" depart="665" departLane="random" departSpeed="10">
    <route edges="-35950914#8 -35950914#3"/>
  </vehicle>
  <vehicle id="veh_13_129" type="standard_car" depart="666" departLane="random" departSpeed="10">
    <route edges="35950914#0 35950914#4"/>
  </vehicle>
  <vehicle id="veh_13_130" type="standard_car" depart="667" departLane="random" departSpeed="10">
    <route edges="408162778#1 408162776#0"/>
  </vehicle>
  <vehicle id="veh_13_131" type="standard_car" depart="669" departLane="random" departSpeed="10">
    <route edges="408162778#1 408162776#0"/>
  </vehicle>
  <vehicle id="veh_13_132" type="standard_car" depart="669" departLane="random" departSpeed="10">
    <route edges="-408162776#4 -408162778#8"/>
  </vehicle>
  <vehicle id="veh_13_133" type="standard_car" depart="673" departLane="random" departSpeed="10">
    <route edges="-35950914#8 -35950914#3"/>
  </vehicle>
  <vehicle id="veh_13_134" type="standard_car" depart="674" departLane="random" departSpeed="10">
    <route edges="-35950914#8 -35950914#3"/>
  </vehicle>
  <vehicle id="veh_13_135" type="standard_car" depart="677" departLane="random" departSpeed="10">
    <route edges="35950914#0 35950914#4"/>
  </vehicle>
  <vehicle id="veh_13_136" type="standard_car" depart="677" departLane="random" departSpeed="10">
    <route edges="35950914#0 35950914#4"/>
  </vehicle>
  <vehicle id="veh_13_137" type="standard_car" depart="677" departLane="random" departSpeed="10">
    <route edges="-408162776#4 -35950914#3"/>
  </vehicle>
  <vehicle id="veh_13_138" type="standard_car" depart="678" departLane="random" departSpeed="10">
    <route edges="-408162776#4 -408162778#8"/>
  </vehicle>
  <vehicle id="veh_13_139" type="standard_car" depart="681" departLane="random" departSpeed="10">
    <route edges="35950914#0 35950914#4"/>
  </vehicle>
  <vehicle id="veh_13_140" type="standard_car" depart="682" departLane="random" departSpeed="10">
    <route edges="408162778#1 408162776#0"/>
  </vehicle>
  <vehicle id="veh_13_141" type="standard_car" depart="685" departLane="random" departSpeed="10">
    <route edges="35950914#0 35950914#4"/>
  </vehicle>
  <vehicle id="veh_13_142" type="standard_car" depart="687" departLane="random" departSpeed="10">
    <route edges="408162778#1 35950914#4"/>
  </vehicle>
  <vehicle id="veh_13_143" type="standard_car" depart="688" departLane="random" departSpeed="10">
    <route edges="-35950914#8 -35950914#3"/>
  </vehicle>
  <vehicle id="veh_13_144" type="standard_car" depart="689" departLane="random" departSpeed="10">
    <route edges="35950914#0 35950914#4"/>
  </vehicle>
  <vehicle id="veh_13_145" type="standard_car" depart="689" departLane="random" departSpeed="10">
    <route edges="408162778#1 408162776#0"/>
  </vehicle>
  <vehicle id="veh_13_146" type="standard_car" depart="694" departLane="random" departSpeed="10">
    <route edges="35950914#0 35950914#4"/>
  </vehicle>
  <vehicle id="veh_13_147" type="standard_car" depart="701" departLane="random" departSpeed="10">
    <route edges="-35950914#8 -35950914#3"/>
  </vehicle>
  <vehicle id="veh_13_148" type="standard_car" depart="701" departLane="random" departSpeed="10">
    <route edges="-35950914#8 408162776#0"/>
  </vehicle>
  <vehicle id="veh_13_149" type="standard_car" depart="701" departLane="random" departSpeed="10">
    <route edges="408162778#1 408162776#0"/>
  </vehicle>
  <vehicle id="veh_13_150" type="standard_car" depart="702" departLane="random" departSpeed="10">
    <route edges="35950914#0 408162776#0"/>
  </vehicle>
  <vehicle id="veh_13_151" type="standard_car" depart="707" departLane="random" departSpeed="10">
    <route edges="408162778#1 408162776#0"/>
  </vehicle>
  <vehicle id="veh_13_152" type="standard_car" depart="708" departLane="random" departSpeed="10">
    <route edges="408162778#1 408162776#0"/>
  </vehicle>
  <vehicle id="veh_13_153" type="standard_car" depart="712" departLane="random" departSpeed="10">
    <route edges="35950914#0 35950914#4"/>
  </vehicle>
  <vehicle id="veh_13_154" type="standard_car" depart="712" departLane="random" departSpeed="10">
    <route edges="408162778#1 35950914#4"/>
  </vehicle>
  <vehicle id="veh_13_155" type="standard_car" depart="713" departLane="random" departSpeed="10">
    <route edges="408162778#1 408162776#0"/>
  </vehicle>
  <vehicle id="veh_13_156" type="standard_car" depart="715" departLane="random" departSpeed="10">
    <route edges="-408162776#4 -408162778#8"/>
  </vehicle>
  <vehicle id="veh_13_157" type="standard_car" depart="716" departLane="random" departSpeed="10">
    <route edges="-35950914#8 -35950914#3"/>
  </vehicle>
  <vehicle id="veh_13_158" type="standard_car" depart="719" departLane="random" departSpeed="10">
    <route edges="-408162776#4 -408162778#8"/>
  </vehicle>
  <vehicle id="veh_13_159" type="standard_car" depart="719" departLane="random" departSpeed="10">
    <route edges="35950914#0 35950914#4"/>
  </vehicle>
  <vehicle id="veh_13_160" type="standard_car" depart="720" departLane="random" departSpeed="10">
    <route edges="-408162776#4 35950914#4"/>
  </vehicle>
  <vehicle id="veh_13_161" type="standard_car" depart="720" departLane="random" departSpeed="10">
    <route edges="-408162776#4 -408162778#8"/>
  </vehicle>
  <vehicle id="veh_13_162" type="standard_car" depart="721" departLane="random" departSpeed="10">
    <route edges="408162778#1 408162776#0"/>
  </vehicle>
  <vehicle id="veh_13_163" type="standard_car" depart="722" departLane="random" departSpeed="10">
    <route edges="408162778#1 408162776#0"/>
  </vehicle>
  <vehicle id="veh_13_164" type="standard_car" depart="724" departLane="random" departSpeed="10">
    <route edges="35950914#0 35950914#4"/>
  </vehicle>
  <vehicle id="veh_13_165" type="standard_car" depart="727" departLane="random" departSpeed="10">
    <route edges="-35950914#8 -35950914#3"/>
  </vehicle>
  <vehicle id="veh_13_166" type="standard_car" depart="730" departLane="random" departSpeed="10">
    <route edges="408162778#1 408162776#0"/>
  </vehicle>
  <vehicle id="veh_13_167" type="standard_car" depart="730" departLane="random" departSpeed="10">
    <route edges="-35950914#8 -35950914#3"/>
  </vehicle>
  <vehicle id="veh_13_168" type="standard_car" depart="735" departLane="random" departSpeed="10">
    <route edges="35950914#0 408162776#0"/>
  </vehicle>
  <vehicle id="veh_13_169" type="standard_car" depart="736" departLane="random" departSpeed="10">
    <route edges="35950914#0 35950914#4"/>
  </vehicle>
  <vehicle id="veh_13_170" type="standard_car" depart="739" departLane="random" departSpeed="10">
    <route edges="-35950914#8 -35950914#3"/>
  </vehicle>
  <vehicle id="veh_13_171" type="standard_car" depart="739" departLane="random" departSpeed="10">
    <route edges="35950914#0 35950914#4"/>
  </vehicle>
  <vehicle id="veh_13_172" type="standard_car" depart="739" departLane="random" departSpeed="10">
    <route edges="-35950914#8 408162776#0"/>
  </vehicle>
  <vehicle id="veh_13_173" type="standard_car" depart="751" departLane="random" departSpeed="10">
    <route edges="408162778#1 35950914#4"/>
  </vehicle>
  <vehicle id="veh_13_174" type="standard_car" depart="755" departLane="random" departSpeed="10">
    <route edges="-35950914#8 -35950914#3"/>
  </vehicle>
  <vehicle id="veh_13_175" type="standard_car" depart="756" departLane="random" departSpeed="10">
    <route edges="35950914#0 35950914#4"/>
  </vehicle>
  <vehicle id="veh_13_176" type="standard_car" depart="760" departLane="random" departSpeed="10">
    <route edges="-35950914#8 408162776#0"/>
  </vehicle>
  <vehicle id="veh_13_177" type="standard_car" depart="761" departLane="random" departSpeed="10">
    <route edges="-408162776#4 -408162778#8"/>
  </vehicle>
  <vehicle id="veh_13_178" type="standard_car" depart="765" departLane="random" departSpeed="10">
    <route edges="-35950914#8 408162776#0"/>
  </vehicle>
  <vehicle id="veh_13_179" type="standard_car" depart="767" departLane="random" departSpeed="10">
    <route edges="408162778#1 408162776#0"/>
  </vehicle>
  <vehicle id="veh_13_180" type="standard_car" depart="776" departLane="random" departSpeed="10">
    <route edges="35950914#0 35950914#4"/>
  </vehicle>
  <vehicle id="veh_13_181" type="standard_car" depart="776" departLane="random" departSpeed="10">
    <route edges="35950914#0 35950914#4"/>
  </vehicle>
  <vehicle id="veh_13_182" type="standard_car" depart="777" departLane="random" departSpeed="10">
    <route edges="35950914#0 35950914#4"/>
  </vehicle>
  <vehicle id="veh_13_183" type="standard_car" depart="781" departLane="random" departSpeed="10">
    <route edges="408162778#1 408162776#0"/>
  </vehicle>
  <vehicle id="veh_13_184" type="standard_car" depart="781" departLane="random" departSpeed="10">
    <route edges="408162778#1 408162776#0"/>
  </vehicle>
  <vehicle id="veh_13_185" type="standard_car" depart="791" departLane="random" departSpeed="10">
    <route edges="408162778#1 408162776#0"/>
  </vehicle>
  <vehicle id="veh_13_186" type="standard_car" depart="795" departLane="random" departSpeed="10">
    <route edges="408162778#1 408162776#0"/>
  </vehicle>
  <vehicle id="veh_13_187" type="standard_car" depart="801" departLane="random" departSpeed="10">
    <route edges="35950914#0 -408162778#8"/>
  </vehicle>
  <vehicle id="veh_13_188" type="standard_car" depart="802" departLane="random" departSpeed="10">
    <route edges="35950914#0 35950914#4"/>
  </vehicle>
  <vehicle id="veh_13_189" type="standard_car" depart="802" departLane="random" departSpeed="10">
    <route edges="-408162776#4 -408162778#8"/>
  </vehicle>
  <vehicle id="veh_13_190" type="standard_car" depart="803" departLane="random" departSpeed="10">
    <route edges="-408162776#4 -408162778#8"/>
  </vehicle>
  <vehicle id="veh_13_191" type="standard_car" depart="804" departLane="random" departSpeed="10">
    <route edges="-35950914#8 -35950914#3"/>
  </vehicle>