<routes>
  <vType id="standard_car" accel="1.0" decel="4.5" length="5.0" minGap="2.5" maxSpeed="25" sigma="0.5"/>
  <vehicle id="veh_3_0" type="standard_car" depart="49" departLane="random" departSpeed="10">
    <route edges="408162778#1 408162776#0"/>
  </vehicle>
  <vehicle id="veh_3_1" type="standard_car" depart="65" departLane="random" departSpeed="10">
    <route edges="-408162776#4 -408162778#8"/>
  </vehicle>
  <vehicle id="veh_3_2" type="standard_car" depart="83" departLane="random" departSpeed="10">
    <route edges="-408162776#4 35950914#4"/>
  </vehicle>
  <vehicle id="veh_3_3" type="standard_car" depart="118" departLane="random" departSpeed="10">
    <route edges="-408162776#4 -408162778#8"/>
  </vehicle>
  <vehicle id="veh_3_4" type="standard_car" depart="121" departLane="random" departSpeed="10">
    <route edges="35950914#0 -408162778#8"/>
  </vehicle>
  <vehicle id="veh_3_5" type="standard_car" depart="148" departLane="random" departSpeed="10">
    <route edges="-35950914#8 -35950914#3"/>
  </vehicle>
  <vehicle id="veh_3_6" type="standard_car" depart="154" departLane="random" departSpeed="10">
    <route edges="35950914#0 35950914#4"/>
  </vehicle>
  <vehicle id="veh_3_7" type="standard_car" depart="178" departLane="random" departSpeed="10">
    <route edges="35950914#0 35950914#4"/>
  </vehicle>
  <vehicle id="veh_3_8" type="standard_car" depart="207" departLane="random" departSpeed="10">
    <route edges="-408162776#4 -408162778#8"/>
  </vehicle>
  <vehicle id="veh_3_9" type="standard_car" depart="212" departLane="random" departSpeed="10">
    <route edges="408162778#1 408162776#0"/>
  </vehicle>
  <vehicle id="veh_3_10" type="standard_car" depart="219" departLane="random" departSpeed="10">
    <route edges="35950914#0 -408162778#8"/>
  </vehicle>
  <vehicle id="veh_3_11" type="standard_car" depart="222" departLane="random" departSpeed="10">
    <route edges="-408162776#4 -408162778#8"/>
  </vehicle>
  <vehicle id="veh_3_12" type="standard_car" depart="240" departLane="random" departSpeed="10">
    <route edges="-408162776#4 -408162778#8"/>
  </vehicle>
  <vehicle id="veh_3_13" type="standard_car" depart="242" departLane="random" departSpeed="10">
    <route edges="408162778#1 408162776#0"/>
  </vehicle>
  <vehicle id="veh_3_14" type="standard_car" depart="245" departLane="random" departSpeed="10">
    <route edges="35950914#0 35950914#4"/>
  </vehicle>
  <vehicle id="veh_3_15" type="standard_car" depart="246" departLane="random" departSpeed="10">
    <route edges="35950914#0 35950914#4"/>
  </vehicle>
  <vehicle id="veh_3_16" type="standard_car" depart="249" departLane="random" departSpeed="10">
    <route edges="-408162776#4 35950914#4"/>
  </vehicle>
  <vehicle id="veh_3_17" type="standard_car" depart="264" departLane="random" departSpeed="10">
    <route edges="408162778#1 -35950914#3"/>
  </vehicle>
  <vehicle id="veh_3_18" type="standard_car" depart="265" departLane="random" departSpeed="10">
    <route edges="408162778#1 408162776#0"/>
  </vehicle>
  <vehicle id="veh_3_19" type="standard_car" depart="270" departLane="random" departSpeed="10">
    <route edges="408162778#1 35950914#4"/>
  </vehicle>
  <vehicle id="veh_3_20" type="standard_car" depart="273" departLane="random" departSpeed="10">
    <route edges="-408162776#4 -408162778#8"/>
  </vehicle>
  <vehicle id="veh_3_21" type="standard_car" depart="280" departLane="random" departSpeed="10">
    <route edges="35950914#0 35950914#4"/>
  </vehicle>
  <vehicle id="veh_3_22" type="standard_car" depart="305" departLane="random" departSpeed="10">
    <route edges="35950914#0 35950914#4"/>
  </vehicle>
  <vehicle id="veh_3_23" type="standard_car" depart="313" departLane="random" departSpeed="10">
    <route edges="-35950914#8 -35950914#3"/>
  </vehicle>
  <vehicle id="veh_3_24" type="standard_car" depart="316" departLane="random" departSpeed="10">
    <route edges="-408162776#4 -35950914#3"/>
  </vehicle>
  <vehicle id="veh_3_25" type="standard_car" depart="318" departLane="random" departSpeed="10">
    <route edges="-35950914#8 -35950914#3"/>
  </vehicle>
  <vehicle id="veh_3_26" type="standard_car" depart="341" departLane="random" departSpeed="10">
    <route edges="35950914#0 35950914#4"/>
  </vehicle>
  <vehicle id="veh_3_27" type="standard_car" depart="349" departLane="random" departSpeed="10">
    <route edges="-35950914#8 -35950914#3"/>
  </vehicle>
  <vehicle id="veh_3_28" type="standard_car" depart="355" departLane="random" departSpeed="10">
    <route edges="35950914#0 35950914#4"/>
  </vehicle>
  <vehicle id="veh_3_29" type="standard_car" depart="361" departLane="random" departSpeed="10">
    <route edges="-408162776#4 35950914#4"/>
  </vehicle>
  <vehicle id="veh_3_30" type="standard_car" depart="371" departLane="random" departSpeed="10">
    <route edges="-35950914#8 -35950914#3"/>
  </vehicle>
  <vehicle id="veh_3_31" type="standard_car" depart="373" departLane="random" departSpeed="10">
    <route edges="-408162776#4 -408162778#8"/>
  </vehicle>
  <vehicle id="veh_3_32" type="standard_car" depart="373" departLane="random" departSpeed="10">
    <route edges="-35950914#8 -35950914#3"/>
  </vehicle>
  <vehicle id="veh_3_33" type="standard_car" depart="384" departLane="random" departSpeed="10">
    <route edges="408162778#1 408162776#0"/>
  </vehicle>
  <vehicle id="veh_3_34" type="standard_car" depart="385" departLane="random" departSpeed="10">
    <route edges="35950914#0 35950914#4"/>
  </vehicle>
  <vehicle id="veh_3_35" type="standard_car" depart="388" departLane="random" departSpeed="10">
    <route edges="-35950914#8 -35950914#3"/>
  </vehicle>
  <vehicle id="veh_3_36" type="standard_car" depart="392" departLane="random" departSpeed="10">
    <route edges="-408162776#4 -408162778#8"/>
  </vehicle>
  <vehicle id="veh_3_37" type="standard_car" depart="404" departLane="random" departSpeed="10">
    <route edges="35950914#0 35950914#4"/>
  </vehicle>
  <vehicle id="veh_3_38" type="standard_car" depart="404" departLane="random" departSpeed="10">
    <route edges="-35950914#8 -35950914#3"/>
  </vehicle>
  <vehicle id="veh_3_39" type="standard_car" depart="405" departLane="random" departSpeed="10">
    <route edges="35950914#0 35950914#4"/>
  </vehicle>
  <vehicle id="veh_3_40" type="standard_car" depart="407" departLane="random" departSpeed="10">
    <route edges="35950914#0 35950914#4"/>
  </vehicle>
  <vehicle id="veh_3_41" type="standard_car" depart="411" departLane="random" departSpeed="10">
    <route edges="408162778#1 35950914#4"/>
  </vehicle>
  <vehicle id="veh_3_42" type="standard_car" depart="414" departLane="random" departSpeed="10">
    <route edges="-35950914#8 -35950914#3"/>
  </vehicle>
  <vehicle id="veh_3_43" type="standard_car" depart="415" departLane="random" departSpeed="10">
    <route edges="408162778#1 408162776#0"/>
  </vehicle>
  <vehicle id="veh_3_44" type="standard_car" depart="419" departLane="random" departSpeed="10">
    <route edges="408162778#1 408162776#0"/>
  </vehicle>
  <vehicle id="veh_3_45" type="standard_car" depart="426" departLane="random" departSpeed="10">
    <route edges="-408162776#4 -408162778#8"/>
  </vehicle>
  <vehicle id="veh_3_46" type="standard_car" depart="431" departLane="random" departSpeed="10">
    <route edges="-35950914#8 -35950914#3"/>
  </vehicle>
  <vehicle id="veh_3_47" type="standard_car" depart="432" departLane="random" departSpeed="10">
    <route edges="35950914#0 35950914#4"/>
  </vehicle>
  <vehicle id="veh_3_48" type="standard_car" depart="436" departLane="random" departSpeed="10">
    <route edges="-35950914#8 -35950914#3"/>
  </vehicle>
  <vehicle id="veh_3_49" type="standard_car" depart="439" departLane="random" departSpeed="10">
    <route edges="-408162776#4 35950914#4"/>
  </vehicle>
  <vehicle id="veh_3_50" type="standard_car" depart="446" departLane="random" departSpeed="10">
    <route edges="-408162776#4 35950914#4"/>
  </vehicle>
  <vehicle id="veh_3_51" type="standard_car" depart="452" departLane="random" departSpeed="10">
    <route edges="35950914#0 35950914#4"/>
  </vehicle>
  <vehicle id="veh_3_52" type="standard_car" depart="454" departLane="random" departSpeed="10">
    <route edges="-35950914#8 -35950914#3"/>
  </vehicle>
  <vehicle id="veh_3_53" type="standard_car" depart="454" departLane="random" departSpeed="10">
    <route edges="-408162776#4 -408162778#8"/>
  </vehicle>
  <vehicle id="veh_3_54" type="standard_car" depart="456" departLane="random" departSpeed="10">
    <route edges="-35950914#8 -35950914#3"/>
  </vehicle>
  <vehicle id="veh_3_55" type="standard_car" depart="465" departLane="random" departSpeed="10">
    <route edges="35950914#0 35950914#4"/>
  </vehicle>
  <vehicle id="veh_3_56" type="standard_car" depart="470" departLane="random" departSpeed="10">
    <route edges="35950914#0 35950914#4"/>
  </vehicle>
  <vehicle id="veh_3_57" type="standard_car" depart="472" departLane="random" departSpeed="10">
    <route edges="35950914#0 -408162778#8"/>
  </vehicle>
  <vehicle id="veh_3_58" type="standard_car" depart="474" departLane="random" departSpeed="10">
    <route edges="408162778#1 408162776#0"/>
  </vehicle>
  <vehicle id="veh_3_59" type="standard_car" depart="474" departLane="random" departSpeed="10">
    <route edges="-408162776#4 -408162778#8"/>
  </vehicle>
  <vehicle id="veh_3_60" type="standard_car" depart="480" departLane="random" departSpeed="10">
    <route edges="35950914#0 -408162778#8"/>
  </vehicle>
  <vehicle id="veh_3_61" type="standard_car" depart="485" departLane="random" departSpeed="10">
    <route edges="-35950914#8 -35950914#3"/>
  </vehicle>
  <vehicle id="veh_3_62" type="standard_car" depart="485" departLane="random" departSpeed="10">
    <route edges="-408162776#4 -408162778#8"/>
  </vehicle>
  <vehicle id="veh_3_63" type="standard_car" depart="494" departLane="random" departSpeed="10">
    <route edges="35950914#0 408162776#0"/>
  </vehicle>
  <vehicle id="veh_3_64" type="standard_car" depart="495" departLane="random" departSpeed="10">
    <route edges="-35950914#8 -35950914#3"/>
  </vehicle>
  <vehicle id="veh_3_65" type="standard_car" depart="498" departLane="random" departSpeed="10">
    <route edges="408162778#1 408162776#0"/>
  </vehicle>
  <vehicle id="veh_3_66" type="standard_car" depart="499" departLane="random" departSpeed="10">
    <route edges="-408162776#4 -408162778#8"/>
  </vehicle>
  <vehicle id="veh_3_67" type="standard_car" depart="505" departLane="random" departSpeed="10">
    <route edges="-35950914#8 408162776#0"/>
  </vehicle>
  <vehicle id="veh_3_68" type="standard_car" depart="508" departLane="random" departSpeed="10">
    <route edges="-35950914#8 -35950914#3"/>
  </vehicle>
  <vehicle id="veh_3_69" type="standard_car" depart="512" departLane="random" departSpeed="10">
    <route edges="-408162776#4 -408162778#8"/>
  </vehicle>
  <vehicle id="veh_3_70" type="standard_car" depart="513" departLane="random" departSpeed="10">
    <route edges="35950914#0 35950914#4"/>
  </vehicle>
  <vehicle id="veh_3_71" type="standard_car" depart="514" departLane="random" departSpeed="10">
    <route edges="-35950914#8 -35950914#3"/>
  </vehicle>
  <vehicle id="veh_3_72" type="standard_car" depart="518" departLane="random" departSpeed="10">
    <route edges="408162778#1 35950914#4"/>
  </vehicle>
  <vehicle id="veh_3_73" type="standard_car" depart="518" departLane="random" departSpeed="10">
    <route edges="408162778#1 408162776#0"/>
  </vehicle>
  <vehicle id="veh_3_74" type="standard_car" depart="520" departLane="random" departSpeed="10">
    <route edges="408162778#1 408162776#0"/>
  </vehicle>
  <vehicle id="veh_3_75" type="standard_car" depart="526" departLane="random" departSpeed="10">
    <route edges="35950914#0 408162776#0"/>
  </vehicle>
  <vehicle id="veh_3_76" type="standard_car" depart="529" departLane="random" departSpeed="10">
    <route edges="35950914#0 35950914#4"/>
  </vehicle>
  <vehicle id="veh_3_77" type="standard_car" depart="533" departLane="random" departSpeed="10">
    <route edges="-35950914#8 408162776#0"/>
  </vehicle>
  <vehicle id="veh_3_78" type="standard_car" depart="534" departLane="random" departSpeed="10">
    <route edges="-408162776#4 -408162778#8"/>
  </vehicle>
  <vehicle id="veh_3_79" type="standard_car" depart="536" departLane="random" departSpeed="10">
    <route edges="-35950914#8 -408162778#8"/>
  </vehicle>
  <vehicle id="veh_3_80" type="standard_car" depart="538" departLane="random" departSpeed="10">
    <route edges="35950914#0 408162776#0"/>
  </vehicle>
  <vehicle id="veh_3_81" type="standard_car" depart="541" departLane="random" departSpeed="10">
    <route edges="408162778#1 35950914#4"/>
  </vehicle>
  <vehicle id="veh_3_82" type="standard_car" depart="544" departLane="random" departSpeed="10">
    <route edges="-408162776#4 -408162778#8"/>
  </vehicle>
  <vehicle id="veh_3_83" type="standard_car" depart="551" departLane="random" departSpeed="10">
    <route edges="-35950914#8 -35950914#3"/>
  </vehicle>
  <vehicle id="veh_3_84" type="standard_car" depart="552" departLane="random" departSpeed="10">
    <route edges="35950914#0 35950914#4"/>
  </vehicle>
  <vehicle id="veh_3_85" type="standard_car" depart="560" departLane="random" departSpeed="10">
    <route edges="-408162776#4 -408162778#8"/>
  </vehicle>
  <vehicle id="veh_3_86" type="standard_car" depart="560" departLane="random" departSpeed="10">
    <route edges="408162778#1 35950914#4"/>
  </vehicle>
  <vehicle id="veh_3_87" type="standard_car" depart="563" departLane="random" departSpeed="10">
    <route edges="35950914#0 35950914#4"/>
  </vehicle>
  <vehicle id="veh_3_88" type="standard_car" depart="563" departLane="random" departSpeed="10">
    <route edges="-35950914#8 -35950914#3"/>
  </vehicle>
  <vehicle id="veh_3_89" type="standard_car" depart="564" departLane="random" departSpeed="10">
    <route edges="-408162776#4 -408162778#8"/>
  </vehicle>
  <vehicle id="veh_3_90" type="standard_car" depart="565" departLane="random" departSpeed="10">
    <route edges="408162778#1 408162776#0"/>
  </vehicle>
  <vehicle id="veh_3_91" type="standard_car" depart="570" departLane="random" departSpeed="10">
    <route edges="408162778#1 35950914#4"/>
  </vehicle>
  <vehicle id="veh_3_92" type="standard_car" depart="578" departLane="random" departSpeed="10">
    <route edges="-35950914#8 -35950914#3"/>
  </vehicle>
  <vehicle id="veh_3_93" type="standard_car" depart="581" departLane="random" departSpeed="10">
    <route edges="-35950914#8 -35950914#3"/>
  </vehicle>
  <vehicle id="veh_3_94" type="standard_car" depart="585" departLane="random" departSpeed="10">
    <route edges="-35950914#8 -35950914#3"/>
  </vehicle>
  <vehicle id="veh_3_95" type="standard_car" depart="585" departLane="random" departSpeed="10">
    <route edges="-35950914#8 -408162778#8"/>
  </vehicle>
  <vehicle id="veh_3_96" type="standard_car" depart="591" departLane="random" departSpeed="10">
    <route edges="-408162776#4 -408162778#8"/>
  </vehicle>
  <vehicle id="veh_3_97" type="standard_car" depart="594" departLane="random" departSpeed="10">
    <route edges="408162778#1 408162776#0"/>
  </vehicle>
  <vehicle id="veh_3_98" type="standard_car" depart="602" departLane="random" departSpeed="10">
    <route edges="408162778#1 408162776#0"/>
  </vehicle>
  <vehicle id="veh_3_99" type="standard_car" depart="605" departLane="random" departSpeed="10">
    <route edges="408162778#1 -35950914#3"/>
  </vehicle>
  <vehicle id="veh_3_100" type="standard_car" depart="608" departLane="random" departSpeed="10">
    <route edges="408162778#1 408162776#0"/>
  </vehicle>
  <vehicle id="veh_3_101" type="standard_car" depart="608" departLane="random" departSpeed="10">
    <route edges="-35950914#8 -35950914#3"/>
  </vehicle>
  <vehicle id="veh_3_102" type="standard_car" depart="609" departLane="random" departSpeed="10">
    <route edges="35950914#0 35950914#4"/>
  </vehicle>
  <vehicle id="veh_3_103" type="standard_car" depart="609" departLane="random" departSpeed="10">
    <route edges="408162778#1 408162776#0"/>
  </vehicle>
  <vehicle id="veh_3_104" type="standard_car" depart="625" departLane="random" departSpeed="10">
    <route edges="408162778#1 408162776#0"/>
  </vehicle>
  <vehicle id="veh_3_105" type="standard_car" depart="629" departLane="random" departSpeed="10">
    <route edges="-408162776#4 35950914#4"/>
  </vehicle>
  <vehicle id="veh_3_106" type="standard_car" depart="633" departLane="random" departSpeed="10">
    <route edges="-35950914#8 -35950914#3"/>
  </vehicle>
  <vehicle id="veh_3_107" type="standard_car" depart="636" departLane="random" departSpeed="10">
    <route edges="-408162776#4 -408162778#8"/>
  </vehicle>
  <vehicle id="veh_3_108" type="standard_car" depart="638" departLane="random" departSpeed="10">
    <route edges="-408162776#4 -35950914#3"/>
  </vehicle>
  <vehicle id="veh_3_109" type="standard_car" depart="645" departLane="random" departSpeed="10">
    <route edges="408162778#1 -35950914#3"/>
  </vehicle>
  <vehicle id="veh_3_110" type="standard_car" depart="650" departLane="random" departSpeed="10">
    <route edges="408162778#1 408162776#0"/>
  </vehicle>
  <vehicle id="veh_3_111" type="standard_car" depart="657" departLane="random" departSpeed="10">
    <route edges="-408162776#4 -408162778#8"/>
  </vehicle>
  <vehicle id="veh_3_112" type="standard_car" depart="658" departLane="random" departSpeed="10">
    <route edges="408162778#1 408162776#0"/>
  </vehicle>
  <vehicle id="veh_3_113" type="standard_car" depart="659" departLane="random" departSpeed="10">
    <route edges="-408162776#4 -408162778#8"/>
  </vehicle>
  <vehicle id="veh_3_114" type="standard_car" depart="659" departLane="random" departSpeed="10">
    <route edges="-408162776#4 35950914#4"/>
  </vehicle>
  <vehicle id="veh_3_115" type="standard_car" depart="662" departLane="random" departSpeed="10">
    <route edges="408162778#1 -35950914#3"/>
  </vehicle>
  <vehicle id="veh_3_116" type="standard_car" depart="665" departLane="random" departSpeed="10">
    <route edges="35950914#0 408162776#0"/>
  </vehicle>
  <vehicle id="veh_3_117" type="standard_car" depart="667" departLane="random" departSpeed="10">
    <route edges="35950914#0 -408162778#8"/>
  </vehicle>
  <vehicle id="veh_3_118" type="standard_car" depart="670" departLane="random" departSpeed="10">
    <route edges="35950914#0 35950914#4"/>
  </vehicle>
  <vehicle id="veh_3_119" type="standard_car" depart="682" departLane="random" departSpeed="10">
    <route edges="-408162776#4 -408162778#8"/>
  </vehicle>
  <vehicle id="veh_3_120" type="standard_car" depart="683" departLane="random" departSpeed="10">
    <route edges="-35950914#8 -408162778#8"/>
  </vehicle>
  <vehicle id="veh_3_121" type="standard_car" depart="686" departLane="random" departSpeed="10">
    <route edges="-408162776#4 -408162778#8"/>
  </vehicle>
  <vehicle id="veh_3_122" type="standard_car" depart="693" departLane="random" departSpeed="10">
    <route edges="408162778#1 408162776#0"/>
  </vehicle>
  <vehicle id="veh_3_123" type="standard_car" depart="694" departLane="random" departSpeed="10">
    <route edges="-408162776#4 35950914#4"/>
  </vehicle>
  <vehicle id="veh_3_124" type="standard_car" depart="698" departLane="random" departSpeed="10">
    <route edges="-408162776#4 -35950914#3"/>
  </vehicle>
  <vehicle id="veh_3_125" type="standard_car" depart="699" departLane="random" departSpeed="10">
    <route edges="-408162776#4 -408162778#8"/>
  </vehicle>
  <vehicle id="veh_3_126" type="standard_car" depart="704" departLane="random" departSpeed="10">
    <route edges="35950914#0 35950914#4"/>
  </vehicle>
  <vehicle id="veh_3_127" type="standard_car" depart="707" departLane="random" departSpeed="10">
    <route edges="35950914#0 35950914#4"/>
  </vehicle>
  <vehicle id="veh_3_128" type="standard_car" depart="707" departLane="random" departSpeed="10">
    <route edges="408162778#1 408162776#0"/>
  </vehicle>
  <vehicle id="veh_3_129" type="standard_car" depart="708" departLane="random" departSpeed="10">
    <route edges="-408162776#4 35950914#4"/>
  </vehicle>
  <vehicle id="veh_3_130" type="standard_car" depart="712" departLane="random" departSpeed="10">
    <route edges="35950914#0 35950914#4"/>
  </vehicle>
  <vehicle id="veh_3_131" type="standard_car" depart="713" departLane="random" departSpeed="10">
    <route edges="35950914#0 35950914#4"/>
  </vehicle>
  <vehicle id="veh_3_132" type="standard_car" depart="714" departLane="random" departSpeed="10">
    <route edges="-408162776#4 35950914#4"/>
  </vehicle>
  <vehicle id="veh_3_133" type="standard_car" depart="715" departLane="random" departSpeed="10">
    <route edges="-35950914#8 -35950914#3"/>
  </vehicle>
  <vehicle id="veh_3_134" type="standard_car" depart="718" departLane="random" departSpeed="10">
    <route edges="35950914#0 35950914#4"/>
  </vehicle>
  <vehicle id="veh_3_135" type="standard_car" depart="723" departLane="random" departSpeed="10">
    <route edges="35950914#0 -408162778#8"/>
  </vehicle>
  <vehicle id="veh_3_136" type="standard_car" depart="731" departLane="random" departSpeed="10">
    <route edges="-408162776#4 -35950914#3"/>
  </vehicle>
  <vehicle id="veh_3_137" type="standard_car" depart="732" departLane="random" departSpeed="10">
    <route edges="-408162776#4 -408162778#8"/>
  </vehicle>
  <vehicle id="veh_3_138" type="standard_car" depart="734" departLane="random" departSpeed="10">
    <route edges="35950914#0 408162776#0"/>
  </vehicle>
  <vehicle id="veh_3_139" type="standard_car" depart="735" departLane="random" departSpeed="10">
    <route edges="-408162776#4 -408162778#8"/>
  </vehicle>
  <vehicle id="veh_3_140" type="standard_car" depart="741" departLane="random" departSpeed="10">
    <route edges="-408162776#4 -408162778#8"/>
  </vehicle>
  <vehicle id="veh_3_141" type="standard_car" depart="741" departLane="random" departSpeed="10">
    <route edges="-408162776#4 -35950914#3"/>
  </vehicle>
  <vehicle id="veh_3_142" type="standard_car" depart="742" departLane="random" departSpeed="10">
    <route edges="408162778#1 408162776#0"/>
  </vehicle>
  <vehicle id="veh_3_143" type="standard_car" depart="744" departLane="random" departSpeed="10">
    <route edges="408162778#1 408162776#0"/>
  </vehicle>
  <vehicle id="veh_3_144" type="standard_car" depart="744" departLane="random" departSpeed="10">
    <route edges="408162778#1 408162776#0"/>
  </vehicle>
  <vehicle id="veh_3_145" type="standard_car" depart="745" departLane="random" departSpeed="10">
    <route edges="35950914#0 35950914#4"/>
  </vehicle>
  <vehicle id="veh_3_146" type="standard_car" depart="745" departLane="random" departSpeed="10">
    <route edges="35950914#0 35950914#4"/>
  </vehicle>
  <vehicle id="veh_3_147" type="standard_car" depart="747" departLane="random" departSpeed="10">
    <route edges="408162778#1 408162776#0"/>
  </vehicle>
  <vehicle id="veh_3_148" type="standard_car" depart="749" departLane="random" departSpeed="10">
    <route edges="-35950914#8 408162776#0"/>
  </vehicle>
  <vehicle id="veh_3_149" type="standard_car" depart="754" departLane="random" departSpeed="10">
    <route edges="-408162776#4 35950914#4"/>
  </vehicle>
  <vehicle id="veh_3_150" type="standard_car" depart="756" departLane="random" departSpeed="10">
    <route edges="-408162776#4 -408162778#8"/>
  </vehicle>
  <vehicle id="veh_3_151" type="standard_car" depart="758" departLane="random" departSpeed="10">
    <route edges="-35950914#8 -35950914#3"/>
  </vehicle>
  <vehicle id="veh_3_152" type="standard_car" depart="763" departLane="random" departSpeed="10">
    <route edges="35950914#0 408162776#0"/>
  </vehicle>
  <vehicle id="veh_3_153" type="standard_car" depart="764" departLane="random" departSpeed="10">
    <route edges="35950914#0 35950914#4"/>
  </vehicle>
  <vehicle id="veh_3_154" type="standard_car" depart="767" departLane="random" departSpeed="10">
    <route edges="-35950914#8 -35950914#3"/>
  </vehicle>
  <vehicle id="veh_3_155" type="standard_car" depart="768" departLane="random" departSpeed="10">
    <route edges="408162778#1 408162776#0"/>
  </vehicle>
  <vehicle id="veh_3_156" type="standard_car" depart="774" departLane="random" departSpeed="10">
    <route edges="-408162776#4 -408162778#8"/>
  </vehicle>
  <vehicle id="veh_3_157" type="standard_car" depart="777" departLane="random" departSpeed="10">
    <route edges="35950914#0 35950914#4"/>
  </vehicle>
  <vehicle id="veh_3_158" type="standard_car" depart="777" departLane="random" departSpeed="10">
    <route edges="35950914#0 35950914#4"/>
  </vehicle>
  <vehicle id="veh_3_159" type="standard_car" depart="783" departLane="random" departSpeed="10">
    <route edges="408162778#1 408162776#0"/>
  </vehicle>
  <vehicle id="veh_3_160" type="standard_car" depart="783" departLane="random" departSpeed="10">
    <route edges="35950914#0 35950914#4"/>
  </vehicle>
  <vehicle id="veh_3_161" type="standard_car" depart="784" departLane="random" departSpeed="10">
    <route edges="-35950914#8 -408162778#8"/>
  </vehicle>
  <vehicle id="veh_3_162" type="standard_car" depart="784" departLane="random" departSpeed="10">
    <route edges="-408162776#4 -408162778#8"/>
  </vehicle>
  <vehicle id="veh_3_163" type="standard_car" depart="785" departLane="random" departSpeed="10">
    <route edges="-408162776#4 -408162778#8"/>
  </vehicle>
  <vehicle id="veh_3_164" type="standard_car" depart="785" departLane="random" departSpeed="10">
    <route edges="-408162776#4 -408162778#8"/>
  </vehicle>
  <vehicle id="veh_3_165" type="standard_car" depart="786" departLane="random" departSpeed="10">
    <route edges="35950914#0 -408162778#8"/>
  </vehicle>
  <vehicle id="veh_3_166" type="standard_car" depart="788" departLane="random" departSpeed="10">
    <route edges="-408162776#4 -408162778#8"/>
  </vehicle>
  <vehicle id="veh_3_167" type="standard_car" depart="791" departLane="random" departSpeed="10">
    <route edges="408162778#1 -35950914#3"/>
  </vehicle>
  <vehicle id="veh_3_168" type="standard_car" depart="791" departLane="random" departSpeed="10">
    <route edges="408162778#1 35950914#4"/>
  </vehicle>
  <vehicle id="veh_3_169" type="standard_car" depart="795" departLane="random" departSpeed="10">
    <route edges="-408162776#4 -408162778#8"/>
  </vehicle>
  <vehicle id="veh_3_170" type="standard_car" depart="796" departLane="random" departSpeed="10">
    <route edges="35950914#0 -408162778#8"/>
  </vehicle>
  <vehicle id="veh_3_171" type="standard_car" depart="800" departLane="random" departSpeed="10">
    <route edges="-35950914#8 -35950914#3"/>
  </vehicle>
  <vehicle id="veh_3_172" type="standard_car" depart="811" departLane="random" departSpeed="10">
    <route edges="408162778#1 408162776#0"/>
  </vehicle>
  <vehicle id="veh_3_173" type="standard_car" depart="812" departLane="random" departSpeed="10">
    <route edges="-408162776#4 35950914#4"/>
  </vehicle>
  <vehicle id="veh_3_174" type="standard_car" depart="814" departLane="random" departSpeed="10">
    <route edges="-35950914#8 -35950914#3"/>
  </vehicle>
  <vehicle id="veh_3_175" type="standard_car" depart="815" departLane="random" departSpeed="10">
    <route edges="-408162776#4 -408162778#8"/>
  </vehicle>
  <vehicle id="veh_3_176" type="standard_car" depart="815" departLane="random" departSpeed="10">
    <route edges="-408162776#4 -408162778#8"/>
  </vehicle>
  <vehicle id="veh_3_177" type="standard_car" depart="817" departLane="random" departSpeed="10">
    <route edges="-35950914#8 408162776#0"/>
  </vehicle>
  <vehicle id="veh_3_178" type="standard_car" depart="821" departLane="random" departSpeed="10">
    <route edges="-35950914#8 -35950914#3"/>
  </vehicle>
  <vehicle id="veh_3_179" type="standard_car" depart="831" departLane="random" departSpeed="10">
    <route edges="408162778#1 408162776#0"/>
  </vehicle>
  <vehicle id="veh_3_180" type="standard_car" depart="831" departLane="random" departSpeed="10">
    <route edges="35950914#0 35950914#4"/>
  </vehicle>
  <vehicle id="veh_3_181" type="standard_car" depart="833" departLane="random" departSpeed="10">
    <route edges="35950914#0 408162776#0"/>
  </vehicle>
  <vehicle id="veh_3_182" type="standard_car" depart="836" departLane="random" departSpeed="10">
    <route edges="408162778#1 408162776#0"/>
  </vehicle>
  <vehicle id="veh_3_183" type="standard_car" depart="838" departLane="random" departSpeed="10">
    <route edges="-408162776#4 -408162778#8"/>
  </vehicle>
  <vehicle id="veh_3_184" type="standard_car" depart="842" departLane="random" departSpeed="10">
    <route edges="408162778#1 408162776#0"/>
  </vehicle>
  <vehicle id="veh_3_185" type="standard_car" depart="842" departLane="random" departSpeed="10">
    <route edges="-408162776#4 -408162778#8"/>
  </vehicle>
  <vehicle id="veh_3_186" type="standard_car" depart="846" departLane="random" departSpeed="10">
    <route edges="35950914#0 35950914#4"/>
  </vehicle>
  <vehicle id="veh_3_187" type="standard_car" depart="848" departLane="random" departSpeed="10">
    <route edges="408162778#1 35950914#4"/>
  </vehicle>
  <vehicle id="veh_3_188" type="standard_car" depart="852" departLane="random" departSpeed="10">
    <route edges="35950914#0 35950914#4"/>
  </vehicle>
  <vehicle id="veh_3_189" type="standard_car" depart="854" departLane="random" departSpeed="10">
    <route edges="-408162776#4 -35950914#3"/>
  </vehicle>
  <vehicle id="veh_3_190" type="standard_car" depart="858" departLane="random" departSpeed="10">
    <route edges="408162778#1 35950914#4"/>
  </vehicle>
  <vehicle id="veh_3_191" type="standard_car" depart="858" departLane="random" departSpeed="10">
    <route edges="-35950914#8 -35950914#3"/>
  </vehicle>
  <vehicle id="veh_3_192" type="standard_car" depart="862" departLane="random" departSpeed="10">
    <route edges="408162778#1 408162776#0"/>
  </vehicle>