<routes>
  <vType id="standard_car" accel="1.0" decel="4.5" length="5.0" minGap="2.5" maxSpeed="25" sigma="0.5"/>
  <vehicle id="veh_14_0" type="standard_car" depart="50" departLane="random" departSpeed="10">
    <route edges="408162778#1 408162776#0"/>
  </vehicle>
  <vehicle id="veh_14_1" type="standard_car" depart="109" departLane="random" departSpeed="10">
    <route edges="408162778#1 35950914#4"/>
  </vehicle>
  <vehicle id="veh_14_2" type="standard_car" depart="120" departLane="random" departSpeed="10">
    <route edges="35950914#0 35950914#4"/>
  </vehicle>
  <vehicle id="veh_14_3" type="standard_car" depart="138" departLane="random" departSpeed="10">
    <route edges="408162778#1 -35950914#3"/>
  </vehicle>
  <vehicle id="veh_14_4" type="standard_car" depart="148" departLane="random" departSpeed="10">
    <route edges="35950914#0 408162776#0"/>
  </vehicle>
  <vehicle id="veh_14_5" type="standard_car" depart="152" departLane="random" departSpeed="10">
    <route edges="408162778#1 408162776#0"/>
  </vehicle>
  <vehicle id="veh_14_6" type="standard_car" depart="153" departLane="random" departSpeed="10">
    <route edges="408162778#1 408162776#0"/>
  </vehicle>
  <vehicle id="veh_14_7" type="standard_car" depart="158" departLane="random" departSpeed="10">
    <route edges="35950914#0 35950914#4"/>
  </vehicle>
  <vehicle id="veh_14_8" type="standard_car" depart="162" departLane="random" departSpeed="10">
    <route edges="-35950914#8 -35950914#3"/>
  </vehicle>
  <vehicle id="veh_14_9" type="standard_car" depart="165" departLane="random" departSpeed="10">
    <route edges="-35950914#8 -35950914#3"/>
  </vehicle>
  <vehicle id="veh_14_10" type="standard_car" depart="168" departLane="random" departSpeed="10">
    <route edges="35950914#0 35950914#4"/>
  </vehicle>
  <vehicle id="veh_14_11" type="standard_car" depart="176" departLane="random" departSpeed="10">
    <route edges="-35950914#8 -408162778#8"/>
  </vehicle>
  <vehicle id="veh_14_12" type="standard_car" depart="205" departLane="random" departSpeed="10">
    <route edges="35950914#0 35950914#4"/>
  </vehicle>
  <vehicle id="veh_14_13" type="standard_car" depart="210" departLane="random" departSpeed="10">
    <route edges="-35950914#8 -35950914#3"/>
  </vehicle>
  <vehicle id="veh_14_14" type="standard_car" depart="213" departLane="random" departSpeed="10">
    <route edges="408162778#1 408162776#0"/>
  </vehicle>
  <vehicle id="veh_14_15" type="standard_car" depart="218" departLane="random" departSpeed="10">
    <route edges="408162778#1 35950914#4"/>
  </vehicle>
  <vehicle id="veh_14_16" type="standard_car" depart="242" departLane="random" departSpeed="10">
    <route edges="408162778#1 408162776#0"/>
  </vehicle>
  <vehicle id="veh_14_17" type="standard_car" depart="269" departLane="random" departSpeed="10">
    <route edges="-408162776#4 -35950914#3"/>
  </vehicle>
  <vehicle id="veh_14_18" type="standard_car" depart="272" departLane="random" departSpeed="10">
    <route edges="408162778#1 408162776#0"/>
  </vehicle>
  <vehicle id="veh_14_19" type="standard_car" depart="283" departLane="random" departSpeed="10">
    <route edges="-35950914#8 -35950914#3"/>
  </vehicle>
  <vehicle id="veh_14_20" type="standard_car" depart="286" departLane="random" departSpeed="10">
    <route edges="35950914#0 35950914#4"/>
  </vehicle>
  <vehicle id="veh_14_21" type="standard_car" depart="287" departLane="random" departSpeed="10">
    <route edges="-35950914#8 -35950914#3"/>
  </vehicle>
  <vehicle id="veh_14_22" type="standard_car" depart="287" departLane="random" departSpeed="10">
    <route edges="408162778#1 -35950914#3"/>
  </vehicle>
  <vehicle id="veh_14_23" type="standard_car" depart="295" departLane="random" departSpeed="10">
    <route edges="35950914#0 35950914#4"/>
  </vehicle>
  <vehicle id="veh_14_24" type="standard_car" depart="296" departLane="random" departSpeed="10">
    <route edges="-35950914#8 -35950914#3"/>
  </vehicle>
  <vehicle id="veh_14_25" type="standard_car" depart="303" departLane="random" departSpeed="10">
    <route edges="35950914#0 -408162778#8"/>
  </vehicle>
  <vehicle id="veh_14_26" type="standard_car" depart="322" departLane="random" departSpeed="10">
    <route edges="408162778#1 35950914#4"/>
  </vehicle>
  <vehicle id="veh_14_27" type="standard_car" depart="342" departLane="random" departSpeed="10">
    <route edges="35950914#0 35950914#4"/>
  </vehicle>
  <vehicle id="veh_14_28" type="standard_car" depart="343" departLane="random" departSpeed="10">
    <route edges="408162778#1 408162776#0"/>
  </vehicle>
  <vehicle id="veh_14_29" type="standard_car" depart="351" departLane="random" departSpeed="10">
    <route edges="408162778#1 -35950914#3"/>
  </vehicle>
  <vehicle id="veh_14_30" type="standard_car" depart="363" departLane="random" departSpeed="10">
    <route edges="35950914#0 35950914#4"/>
  </vehicle>
  <vehicle id="veh_14_31" type="standard_car" depart="372" departLane="random" departSpeed="10">
    <route edges="35950914#0 35950914#4"/>
  </vehicle>
  <vehicle id="veh_14_32" type="standard_car" depart="374" departLane="random" departSpeed="10">
    <route edges="-35950914#8 -35950914#3"/>
  </vehicle>
  <vehicle id="veh_14_33" type="standard_car" depart="381" departLane="random" departSpeed="10">
    <route edges="-35950914#8 -35950914#3"/>
  </vehicle>
  <vehicle id="veh_14_34" type="standard_car" depart="392" departLane="random" departSpeed="10">
    <route edges="35950914#0 35950914#4"/>
  </vehicle>
  <vehicle id="veh_14_35" type="standard_car" depart="398" departLane="random" departSpeed="10">
    <route edges="-35950914#8 -35950914#3"/>
  </vehicle>
  <vehicle id="veh_14_36" type="standard_car" depart="400" departLane="random" departSpeed="10">
    <route edges="-35950914#8 -35950914#3"/>
  </vehicle>
  <vehicle id="veh_14_37" type="standard_car" depart="410" departLane="random" departSpeed="10">
    <route edges="35950914#0 35950914#4"/>
  </vehicle>
  <vehicle id="veh_14_38" type="standard_car" depart="414" departLane="random" departSpeed="10">
    <route edges="408162778#1 35950914#4"/>
  </vehicle>
  <vehicle id="veh_14_39" type="standard_car" depart="426" departLane="random" departSpeed="10">
    <route edges="35950914#0 35950914#4"/>
  </vehicle>
  <vehicle id="veh_14_40" type="standard_car" depart="433" departLane="random" departSpeed="10">
    <route edges="-35950914#8 -35950914#3"/>
  </vehicle>
  <vehicle id="veh_14_41" type="standard_car" depart="437" departLane="random" departSpeed="10">
    <route edges="-408162776#4 -35950914#3"/>
  </vehicle>
  <vehicle id="veh_14_42" type="standard_car" depart="441" departLane="random" departSpeed="10">
    <route edges="35950914#0 -408162778#8"/>
  </vehicle>
  <vehicle id="veh_14_43" type="standard_car" depart="442" departLane="random" departSpeed="10">
    <route edges="-408162776#4 -408162778#8"/>
  </vehicle>
  <vehicle id="veh_14_44" type="standard_car" depart="443" departLane="random" departSpeed="10">
    <route edges="35950914#0 35950914#4"/>
  </vehicle>
  <vehicle id="veh_14_45" type="standard_car" depart="443" departLane="random" departSpeed="10">
    <route edges="-35950914#8 -35950914#3"/>
  </vehicle>
  <vehicle id="veh_14_46" type="standard_car" depart="446" departLane="random" departSpeed="10">
    <route edges="35950914#0 35950914#4"/>
  </vehicle>
  <vehicle id="veh_14_47" type="standard_car" depart="452" departLane="random" departSpeed="10">
    <route edges="35950914#0 35950914#4"/>
  </vehicle>
  <vehicle id="veh_14_48" type="standard_car" depart="453" departLane="random" departSpeed="10">
    <route edges="-408162776#4 35950914#4"/>
  </vehicle>
  <vehicle id="veh_14_49" type="standard_car" depart="457" departLane="random" departSpeed="10">
    <route edges="35950914#0 408162776#0"/>
  </vehicle>
  <vehicle id="veh_14_50" type="standard_car" depart="460" departLane="random" departSpeed="10">
    <route edges="-35950914#8 -35950914#3"/>
  </vehicle>
  <vehicle id="veh_14_51" type="standard_car" depart="462" departLane="random" departSpeed="10">
    <route edges="35950914#0 -408162778#8"/>
  </vehicle>
  <vehicle id="veh_14_52" type="standard_car" depart="465" departLane="random" departSpeed="10">
    <route edges="-35950914#8 -35950914#3"/>
  </vehicle>
  <vehicle id="veh_14_53" type="standard_car" depart="465" departLane="random" departSpeed="10">
    <route edges="35950914#0 35950914#4"/>
  </vehicle>
  <vehicle id="veh_14_54" type="standard_car" depart="468" departLane="random" departSpeed="10">
    <route edges="408162778#1 408162776#0"/>
  </vehicle>
  <vehicle id="veh_14_55" type="standard_car" depart="469" departLane="random" departSpeed="10">
    <route edges="408162778#1 408162776#0"/>
  </vehicle>
  <vehicle id="veh_14_56" type="standard_car" depart="479" departLane="random" departSpeed="10">
    <route edges="408162778#1 408162776#0"/>
  </vehicle>
  <vehicle id="veh_14_57" type="standard_car" depart="480" departLane="random" departSpeed="10">
    <route edges="-408162776#4 35950914#4"/>
  </vehicle>
  <vehicle id="veh_14_58" type="standard_car" depart="480" departLane="random" departSpeed="10">
    <route edges="408162778#1 408162776#0"/>
  </vehicle>
  <vehicle id="veh_14_59" type="standard_car" depart="486" departLane="random" departSpeed="10">
    <route edges="-408162776#4 -408162778#8"/>
  </vehicle>
  <vehicle id="veh_14_60" type="standard_car" depart="490" departLane="random" departSpeed="10">
    <route edges="-408162776#4 -408162778#8"/>
  </vehicle>
  <vehicle id="veh_14_61" type="standard_car" depart="496" departLane="random" departSpeed="10">
    <route edges="-35950914#8 -408162778#8"/>
  </vehicle>
  <vehicle id="veh_14_62" type="standard_car" depart="498" departLane="random" departSpeed="10">
    <route edges="-35950914#8 -35950914#3"/>
  </vehicle>
  <vehicle id="veh_14_63" type="standard_car" depart="501" departLane="random" departSpeed="10">
    <route edges="408162778#1 -35950914#3"/>
  </vehicle>
  <vehicle id="veh_14_64" type="standard_car" depart="503" departLane="random" departSpeed="10">
    <route edges="-35950914#8 -35950914#3"/>
  </vehicle>
  <vehicle id="veh_14_65" type="standard_car" depart="507" departLane="random" departSpeed="10">
    <route edges="35950914#0 35950914#4"/>
  </vehicle>
  <vehicle id="veh_14_66" type="standard_car" depart="517" departLane="random" departSpeed="10">
    <route edges="35950914#0 35950914#4"/>
  </vehicle>
  <vehicle id="veh_14_67" type="standard_car" depart="519" departLane="random" departSpeed="10">
    <route edges="35950914#0 35950914#4"/>
  </vehicle>
  <vehicle id="veh_14_68" type="standard_car" depart="526" departLane="random" departSpeed="10">
    <route edges="-35950914#8 -35950914#3"/>
  </vehicle>
  <vehicle id="veh_14_69" type="standard_car" depart="526" departLane="random" departSpeed="10">
    <route edges="408162778#1 408162776#0"/>
  </vehicle>
  <vehicle id="veh_14_70" type="standard_car" depart="528" departLane="random" departSpeed="10">
    <route edges="-35950914#8 408162776#0"/>
  </vehicle>
  <vehicle id="veh_14_71" type="standard_car" depart="529" departLane="random" departSpeed="10">
    <route edges="-408162776#4 -408162778#8"/>
  </vehicle>
  <vehicle id="veh_14_72" type="standard_car" depart="530" departLane="random" departSpeed="10">
    <route edges="35950914#0 35950914#4"/>
  </vehicle>
  <vehicle id="veh_14_73" type="standard_car" depart="531" departLane="random" departSpeed="10">
    <route edges="-35950914#8 -35950914#3"/>
  </vehicle>
  <vehicle id="veh_14_74" type="standard_car" depart="531" departLane="random" departSpeed="10">
    <route edges="408162778#1 408162776#0"/>
  </vehicle>
  <vehicle id="veh_14_75" type="standard_car" depart="533" departLane="random" departSpeed="10">
    <route edges="-35950914#8 -35950914#3"/>
  </vehicle>
  <vehicle id="veh_14_76" type="standard_car" depart="541" departLane="random" departSpeed="10">
    <route edges="-35950914#8 -35950914#3"/>
  </vehicle>
  <vehicle id="veh_14_77" type="standard_car" depart="545" departLane="random" departSpeed="10">
    <route edges="-408162776#4 -408162778#8"/>
  </vehicle>
  <vehicle id="veh_14_78" type="standard_car" depart="549" departLane="random" departSpeed="10">
    <route edges="35950914#0 408162776#0"/>
  </vehicle>
  <vehicle id="veh_14_79" type="standard_car" depart="558" departLane="random" departSpeed="10">
    <route edges="35950914#0 -408162778#8"/>
  </vehicle>
  <vehicle id="veh_14_80" type="standard_car" depart="559" departLane="random" departSpeed="10">
    <route edges="-35950914#8 -35950914#3"/>
  </vehicle>
  <vehicle id="veh_14_81" type="standard_car" depart="561" departLane="random" departSpeed="10">
    <route edges="-35950914#8 -35950914#3"/>
  </vehicle>
  <vehicle id="veh_14_82" type="standard_car" depart="571" departLane="random" departSpeed="10">
    <route edges="-35950914#8 408162776#0"/>
  </vehicle>
  <vehicle id="veh_14_83" type="standard_car" depart="572" departLane="random" departSpeed="10">
    <route edges="35950914#0 35950914#4"/>
  </vehicle>
  <vehicle id="veh_14_84" type="standard_car" depart="574" departLane="random" departSpeed="10">
    <route edges="-408162776#4 -408162778#8"/>
  </vehicle>
  <vehicle id="veh_14_85" type="standard_car" depart="576" departLane="random" departSpeed="10">
    <route edges="-408162776#4 35950914#4"/>
  </vehicle>
  <vehicle id="veh_14_86" type="standard_car" depart="578" departLane="random" departSpeed="10">
    <route edges="-35950914#8 -35950914#3"/>
  </vehicle>
  <vehicle id="veh_14_87" type="standard_car" depart="578" departLane="random" departSpeed="10">
    <route edges="-35950914#8 -35950914#3"/>
  </vehicle>
  <vehicle id="veh_14_88" type="standard_car" depart="579" departLane="random" departSpeed="10">
    <route edges="-35950914#8 -35950914#3"/>
  </vehicle>
  <vehicle id="veh_14_89" type="standard_car" depart="580" departLane="random" departSpeed="10">
    <route edges="35950914#0 35950914#4"/>
  </vehicle>
  <vehicle id="veh_14_90" type="standard_car" depart="582" departLane="random" departSpeed="10">
    <route edges="-35950914#8 -35950914#3"/>
  </vehicle>
  <vehicle id="veh_14_91" type="standard_car" depart="586" departLane="random" departSpeed="10">
    <route edges="408162778#1 408162776#0"/>
  </vehicle>
  <vehicle id="veh_14_92" type="standard_car" depart="587" departLane="random" departSpeed="10">
    <route edges="-408162776#4 -408162778#8"/>
  </vehicle>
  <vehicle id="veh_14_93" type="standard_car" depart="611" departLane="random" departSpeed="10">
    <route edges="-35950914#8 -35950914#3"/>
  </vehicle>
  <vehicle id="veh_14_94" type="standard_car" depart="614" departLane="random" departSpeed="10">
    <route edges="-408162776#4 -408162778#8"/>
  </vehicle>
  <vehicle id="veh_14_95" type="standard_car" depart="615" departLane="random" departSpeed="10">
    <route edges="-35950914#8 -35950914#3"/>
  </vehicle>
  <vehicle id="veh_14_96" type="standard_car" depart="615" departLane="random" departSpeed="10">
    <route edges="-35950914#8 -35950914#3"/>
  </vehicle>
  <vehicle id="veh_14_97" type="standard_car" depart="616" departLane="random" departSpeed="10">
    <route edges="408162778#1 408162776#0"/>
  </vehicle>
  <vehicle id="veh_14_98" type="standard_car" depart="618" departLane="random" departSpeed="10">
    <route edges="35950914#0 35950914#4"/>
  </vehicle>
  <vehicle id="veh_14_99" type="standard_car" depart="618" departLane="random" departSpeed="10">
    <route edges="-408162776#4 -408162778#8"/>
  </vehicle>
  <vehicle id="veh_14_100" type="standard_car" depart="620" departLane="random" departSpeed="10">
    <route edges="35950914#0 35950914#4"/>
  </vehicle>
  <vehicle id="veh_14_101" type="standard_car" depart="628" departLane="random" departSpeed="10">
    <route edges="-35950914#8 -35950914#3"/>
  </vehicle>
  <vehicle id="veh_14_102" type="standard_car" depart="629" departLane="random" departSpeed="10">
    <route edges="35950914#0 -408162778#8"/>
  </vehicle>
  <vehicle id="veh_14_103" type="standard_car" depart="632" departLane="random" departSpeed="10">
    <route edges="408162778#1 35950914#4"/>
  </vehicle>
  <vehicle id="veh_14_104" type="standard_car" depart="636" departLane="random" departSpeed="10">
    <route edges="-408162776#4 -408162778#8"/>
  </vehicle>
  <vehicle id="veh_14_105" type="standard_car" depart="645" departLane="random" departSpeed="10">
    <route edges="-35950914#8 -35950914#3"/>
  </vehicle>
  <vehicle id="veh_14_106" type="standard_car" depart="646" departLane="random" departSpeed="10">
    <route edges="-408162776#4 -408162778#8"/>
  </vehicle>
  <vehicle id="veh_14_107" type="standard_car" depart="647" departLane="random" departSpeed="10">
    <route edges="-35950914#8 408162776#0"/>
  </vehicle>
  <vehicle id="veh_14_108" type="standard_car" depart="647" departLane="random" departSpeed="10">
    <route edges="35950914#0 408162776#0"/>
  </vehicle>
  <vehicle id="veh_14_109" type="standard_car" depart="652" departLane="random" departSpeed="10">
    <route edges="408162778#1 408162776#0"/>
  </vehicle>
  <vehicle id="veh_14_110" type="standard_car" depart="659" departLane="random" departSpeed="10">
    <route edges="408162778#1 -35950914#3"/>
  </vehicle>
  <vehicle id="veh_14_111" type="standard_car" depart="660" departLane="random" departSpeed="10">
    <route edges="408162778#1 408162776#0"/>
  </vehicle>
  <vehicle id="veh_14_112" type="standard_car" depart="662" departLane="random" departSpeed="10">
    <route edges="35950914#0 35950914#4"/>
  </vehicle>
  <vehicle id="veh_14_113" type="standard_car" depart="672" departLane="random" departSpeed="10">
    <route edges="-408162776#4 -408162778#8"/>
  </vehicle>
  <vehicle id="veh_14_114" type="standard_car" depart="672" departLane="random" departSpeed="10">
    <route edges="-35950914#8 -35950914#3"/>
  </vehicle>
  <vehicle id="veh_14_115" type="standard_car" depart="672" departLane="random" departSpeed="10">
    <route edges="408162778#1 408162776#0"/>
  </vehicle>
  <vehicle id="veh_14_116" type="standard_car" depart="672" departLane="random" departSpeed="10">
    <route edges="-35950914#8 408162776#0"/>
  </vehicle>
  <vehicle id="veh_14_117" type="standard_car" depart="678" departLane="random" departSpeed="10">
    <route edges="35950914#0 35950914#4"/>
  </vehicle>
  <vehicle id="veh_14_118" type="standard_car" depart="678" departLane="random" departSpeed="10">
    <route edges="-408162776#4 -408162778#8"/>
  </vehicle>
  <vehicle id="veh_14_119" type="standard_car" depart="679" departLane="random" departSpeed="10">
    <route edges="-35950914#8 -35950914#3"/>
  </vehicle>
  <vehicle id="veh_14_120" type="standard_car" depart="680" departLane="random" departSpeed="10">
    <route edges="35950914#0 35950914#4"/>
  </vehicle>
  <vehicle id="veh_14_121" type="standard_car" depart="686" departLane="random" departSpeed="10">
    <route edges="35950914#0 35950914#4"/>
  </vehicle>
  <vehicle id="veh_14_122" type="standard_car" depart="697" departLane="random" departSpeed="10">
    <route edges="-408162776#4 -408162778#8"/>
  </vehicle>
  <vehicle id="veh_14_123" type="standard_car" depart="698" departLane="random" departSpeed="10">
    <route edges="35950914#0 35950914#4"/>
  </vehicle>
  <vehicle id="veh_14_124" type="standard_car" depart="704" departLane="random" departSpeed="10">
    <route edges="35950914#0 35950914#4"/>
  </vehicle>
  <vehicle id="veh_14_125" type="standard_car" depart="705" departLane="random" departSpeed="10">
    <route edges="408162778#1 408162776#0"/>
  </vehicle>
  <vehicle id="veh_14_126" type="standard_car" depart="706" departLane="random" departSpeed="10">
    <route edges="35950914#0 35950914#4"/>
  </vehicle>
  <vehicle id="veh_14_127" type="standard_car" depart="706" departLane="random" departSpeed="10">
    <route edges="35950914#0 -408162778#8"/>
  </vehicle>
  <vehicle id="veh_14_128" type="standard_car" depart="707" departLane="random" departSpeed="10">
    <route edges="408162778#1 408162776#0"/>
  </vehicle>
  <vehicle id="veh_14_129" type="standard_car" depart="708" departLane="random" departSpeed="10">
    <route edges="35950914#0 35950914#4"/>
  </vehicle>
  <vehicle id="veh_14_130" type="standard_car" depart="709" departLane="random" departSpeed="10">
    <route edges="408162778#1 35950914#4"/>
  </vehicle>
  <vehicle id="veh_14_131" type="standard_car" depart="717" departLane="random" departSpeed="10">
    <route edges="408162778#1 -35950914#3"/>
  </vehicle>
  <vehicle id="veh_14_132" type="standard_car" depart="717" departLane="random" departSpeed="10">
    <route edges="-35950914#8 -35950914#3"/>
  </vehicle>
  <vehicle id="veh_14_133" type="standard_car" depart="723" departLane="random" departSpeed="10">
    <route edges="-35950914#8 -408162778#8"/>
  </vehicle>
  <vehicle id="veh_14_134" type="standard_car" depart="726" departLane="random" departSpeed="10">
    <route edges="35950914#0 35950914#4"/>
  </vehicle>
  <vehicle id="veh_14_135" type="standard_car" depart="726" departLane="random" departSpeed="10">
    <route edges="-35950914#8 408162776#0"/>
  </vehicle>
  <vehicle id="veh_14_136" type="standard_car" depart="729" departLane="random" departSpeed="10">
    <route edges="35950914#0 35950914#4"/>
  </vehicle>
  <vehicle id="veh_14_137" type="standard_car" depart="729" departLane="random" departSpeed="10">
    <route edges="-35950914#8 -35950914#3"/>
  </vehicle>
  <vehicle id="veh_14_138" type="standard_car" depart="732" departLane="random" departSpeed="10">
    <route edges="35950914#0 35950914#4"/>
  </vehicle>
  <vehicle id="veh_14_139" type="standard_car" depart="734" departLane="random" departSpeed="10">
    <route edges="408162778#1 408162776#0"/>
  </vehicle>
  <vehicle id="veh_14_140" type="standard_car" depart="735" departLane="random" departSpeed="10">
    <route edges="-35950914#8 -35950914#3"/>
  </vehicle>
  <vehicle id="veh_14_141" type="standard_car" depart="744" departLane="random" departSpeed="10">
    <route edges="35950914#0 408162776#0"/>
  </vehicle>
  <vehicle id="veh_14_142" type="standard_car" depart="758" departLane="random" departSpeed="10">
    <route edges="-35950914#8 -408162778#8"/>
  </vehicle>
  <vehicle id="veh_14_143" type="standard_car" depart="760" departLane="random" departSpeed="10">
    <route edges="-408162776#4 -408162778#8"/>
  </vehicle>
  <vehicle id="veh_14_144" type="standard_car" depart="761" departLane="random" departSpeed="10">
    <route edges="408162778#1 35950914#4"/>
  </vehicle>
  <vehicle id="veh_14_145" type="standard_car" depart="762" departLane="random" departSpeed="10">
    <route edges="35950914#0 35950914#4"/>
  </vehicle>
  <vehicle id="veh_14_146" type="standard_car" depart="764" departLane="random" departSpeed="10">
    <route edges="408162778#1 35950914#4"/>
  </vehicle>
  <vehicle id="veh_14_147" type="standard_car" depart="765" departLane="random" departSpeed="10">
    <route edges="408162778#1 408162776#0"/>
  </vehicle>
  <vehicle id="veh_14_148" type="standard_car" depart="765" departLane="random" departSpeed="10">
    <route edges="-408162776#4 35950914#4"/>
  </vehicle>
  <vehicle id="veh_14_149" type="standard_car" depart="771" departLane="random" departSpeed="10">
    <route edges="408162778#1 408162776#0"/>
  </vehicle>
  <vehicle id="veh_14_150" type="standard_car" depart="771" departLane="random" departSpeed="10">
    <route edges="35950914#0 35950914#4"/>
  </vehicle>
  <vehicle id="veh_14_151" type="standard_car" depart="772" departLane="random" departSpeed="10">
    <route edges="35950914#0 35950914#4"/>
  </vehicle>
  <vehicle id="veh_14_152" type="standard_car" depart="775" departLane="random" departSpeed="10">
    <route edges="-408162776#4 35950914#4"/>
  </vehicle>
  <vehicle id="veh_14_153" type="standard_car" depart="779" departLane="random" departSpeed="10">
    <route edges="-408162776#4 -408162778#8"/>
  </vehicle>
  <vehicle id="veh_14_154" type="standard_car" depart="787" departLane="random" departSpeed="10">
    <route edges="35950914#0 35950914#4"/>
  </vehicle>
  <vehicle id="veh_14_155" type="standard_car" depart="790" departLane="random" departSpeed="10">
    <route edges="35950914#0 35950914#4"/>
  </vehicle>
  <vehicle id="veh_14_156" type="standard_car" depart="792" departLane="random" departSpeed="10">
    <route edges="-35950914#8 -35950914#3"/>
  </vehicle>
  <vehicle id="veh_14_157" type="standard_car" depart="793" departLane="random" departSpeed="10">
    <route edges="35950914#0 408162776#0"/>
  </vehicle>
  <vehicle id="veh_14_158" type="standard_car" depart="794" departLane="random" departSpeed="10">
    <route edges="-35950914#8 -408162778#8"/>
  </vehicle>
  <vehicle id="veh_14_159" type="standard_car" depart="794" departLane="random" departSpeed="10">
    <route edges="35950914#0 35950914#4"/>
  </vehicle>
  <vehicle id="veh_14_160" type="standard_car" depart="795" departLane="random" departSpeed="10">
    <route edges="-35950914#8 408162776#0"/>
  </vehicle>
  <vehicle id="veh_14_161" type="standard_car" depart="796" departLane="random" departSpeed="10">
    <route edges="-35950914#8 -35950914#3"/>
  </vehicle>
  <vehicle id="veh_14_162" type="standard_car" depart="797" departLane="random" departSpeed="10">
    <route edges="35950914#0 408162776#0"/>
  </vehicle>
  <vehicle id="veh_14_163" type="standard_car" depart="801" departLane="random" departSpeed="10">
    <route edges="-35950914#8 -35950914#3"/>
  </vehicle>
  <vehicle id="veh_14_164" type="standard_car" depart="802" departLane="random" departSpeed="10">
    <route edges="408162778#1 408162776#0"/>
  </vehicle>
  <vehicle id="veh_14_165" type="standard_car" depart="806" departLane="random" departSpeed="10">
    <route edges="-35950914#8 -35950914#3"/>
  </vehicle>
  <vehicle id="veh_14_166" type="standard_car" depart="807" departLane="random" departSpeed="10">
    <route edges="-408162776#4 -408162778#8"/>
  </vehicle>
  <vehicle id="veh_14_167" type="standard_car" depart="809" departLane="random" departSpeed="10">
    <route edges="408162778#1 35950914#4"/>
  </vehicle>
  <vehicle id="veh_14_168" type="standard_car" depart="811" departLane="random" departSpeed="10">
    <route edges="35950914#0 35950914#4"/>
  </vehicle>
  <vehicle id="veh_14_169" type="standard_car" depart="812" departLane="random" departSpeed="10">
    <route edges="-35950914#8 -35950914#3"/>
  </vehicle>
  <vehicle id="veh_14_170" type="standard_car" depart="813" departLane="random" departSpeed="10">
    <route edges="408162778#1 408162776#0"/>
  </vehicle>
  <vehicle id="veh_14_171" type="standard_car" depart="815" departLane="random" departSpeed="10">
    <route edges="408162778#1 408162776#0"/>
  </vehicle>
  <vehicle id="veh_14_172" type="standard_car" depart="817" departLane="random" departSpeed="10">
    <route edges="408162778#1 408162776#0"/>
  </vehicle>
  <vehicle id="veh_14_173" type="standard_car" depart="819" departLane="random" departSpeed="10">
    <route edges="408162778#1 35950914#4"/>
  </vehicle>
  <vehicle id="veh_14_174" type="standard_car" depart="826" departLane="random" departSpeed="10">
    <route edges="-35950914#8 -35950914#3"/>
  </vehicle>
  <vehicle id="veh_14_175" type="standard_car" depart="828" departLane="random" departSpeed="10">
    <route edges="-35950914#8 -408162778#8"/>
  </vehicle>
  <vehicle id="veh_14_176" type="standard_car" depart="832" departLane="random" departSpeed="10">
    <route edges="-35950914#8 -35950914#3"/>
  </vehicle>
  <vehicle id="veh_14_177" type="standard_car" depart="833" departLane="random" departSpeed="10">
    <route edges="-35950914#8 -35950914#3"/>
  </vehicle>
  <vehicle id="veh_14_178" type="standard_car" depart="834" departLane="random" departSpeed="10">
    <route edges="-408162776#4 -408162778#8"/>
  </vehicle>
  <vehicle id="veh_14_179" type="standard_car" depart="834" departLane="random" departSpeed="10">
    <route edges="408162778#1 408162776#0"/>
  </vehicle>
  <vehicle id="veh_14_180" type="standard_car" depart="838" departLane="random" departSpeed="10">
    <route edges="-35950914#8 -35950914#3"/>
  </vehicle>
  <vehicle id="veh_14_181" type="standard_car" depart="840" departLane="random" departSpeed="10">
    <route edges="-35950914#8 -35950914#3"/>
  </vehicle>
  <vehicle id="veh_14_182" type="standard_car" depart="841" departLane="random" departSpeed="10">
    <route edges="-35950914#8 -35950914#3"/>
  </vehicle>
  <vehicle id="veh_14_183" type="standard_car" depart="843" departLane="random" departSpeed="10">
    <route edges="-35950914#8 -35950914#3"/>
  </vehicle>
  <vehicle id="veh_14_184" type="standard_car" depart="848" departLane="random" departSpeed="10">
    <route edges="-408162776#4 -408162778#8"/>
  </vehicle>
  <vehicle id="veh_14_185" type="standard_car" depart="849" departLane="random" departSpeed="10">
    <route edges="408162778#1 35950914#4"/>
  </vehicle>
  <vehicle id="veh_14_186" type="standard_car" depart="853" departLane="random" departSpeed="10">
    <route edges="-408162776#4 -408162778#8"/>
  </vehicle>
  <vehicle id="veh_14_187" type="standard_car" depart="856" departLane="random" departSpeed="10">
    <route edges="-408162776#4 -408162778#8"/>
  </vehicle>
  <vehicle id="veh_14_188" type="standard_car" depart="860" departLane="random" departSpeed="10">
    <route edges="-35950914#8 -35950914#3"/>
  </vehicle>
  <vehicle id="veh_14_189" type="standard_car" depart="861" departLane="random" departSpeed="10">
    <route edges="-408162776#4 -408162778#8"/>
  </vehicle>
  <vehicle id="veh_14_190" type="standard_car" depart="864" departLane="random" departSpeed="10">
    <route edges="-408162776#4 -408162778#8"/>
  </vehicle>
  <vehicle id="veh_14_191" type="standard_car" depart="865" departLane="random" departSpeed="10">
    <route edges="408162778#1 408162776#0"/>
  </vehicle>