<?xml version="1.0" encoding="UTF-8"?>

<!-- generated on 2025-12-21T19:39:34.869298+07:00 by Eclipse SUMO sumo 1.25.0
-->

<sumoConfiguration xmlns:xsi="http://www.w3.org/2001/XMLSchema-instance" xsi:noNamespaceSchemaLocation="http://sumo.dlr.de/xsd/sumoConfiguration.xsd">

    <input>
        <net-file value="osm.net.xml.gz"/>
    </input>

</sumoConfiguration>
